*HEADING
cubit(./example/results//finalMesh.inp): 10/16/2025: 12:07:16
version: 16.16.1
**
********************************** P A R T S **********************************
*PART, NAME=Part-Default
**
********************************** N O D E S **********************************
*NODE, NSET=ALLNODES
       1,    8.5000000000000000e+01,    2.3000000000000000e+01,    0.0000000000000000e+00
       2,    8.2000000000000000e+01,    3.9000000000000000e+01,    0.0000000000000000e+00
       3,    8.4588682211605601e+01,    3.1531218759571349e+01,    0.0000000000000000e+00
       4,    7.5000000000000000e+01,    4.6000000000000000e+01,    0.0000000000000000e+00
       5,    7.7148818252314285e+01,    4.0845538527004976e+01,    0.0000000000000000e+00
       6,    6.9000000000000000e+01,    4.5000000000000000e+01,    0.0000000000000000e+00
       7,    7.6000000000000000e+01,    1.8000000000000000e+01,    0.0000000000000000e+00
       8,    7.3123172234095151e+01,    2.4390708344528100e+01,    0.0000000000000000e+00
       9,    7.1086919842637272e+01,    3.1125014247428801e+01,    0.0000000000000000e+00
      10,    7.0946012339786421e+01,    3.8105555508186853e+01,    0.0000000000000000e+00
      11,    8.1000000000000000e+01,    1.8000000000000000e+01,    0.0000000000000000e+00
      12,    8.2944809755077870e+01,    2.0447444618011055e+01,    0.0000000000000000e+00
      13,    7.9190384762468867e+01,    2.5074014563368991e+01,    0.0000000000000000e+00
      14,    7.7206215189613062e+01,    3.4741897508050442e+01,    0.0000000000000000e+00
      15,    7.8042237944916977e+01,    2.1435691321604999e+01,    0.0000000000000000e+00
      16,    7.2915573256108303e+01,    4.2389288136922858e+01,    0.0000000000000000e+00
      17,    7.5731444143272483e+01,    2.9090088601040584e+01,    0.0000000000000000e+00
      18,    7.9719095571557830e+01,    3.0024046837331984e+01,    0.0000000000000000e+00
      19,    8.2375261827917029e+01,    2.7289182683697959e+01,    0.0000000000000000e+00
      20,    1.7600000000000000e+02,    6.9000000000000000e+01,    0.0000000000000000e+00
** ... 2253 like lines cut
**
********************************** E L E M E N T S ****************************
*ELEMENT, TYPE=STRI3, ELSET=C_phase1
       1,    2273,    2272,    2269
       2,    2262,    2261,    2271
       3,    2267,    2266,    2272
       4,    2273,    2269,    2268
       5,    2267,    2272,    2270
       6,    2264,    2263,    2270
       7,    2265,    2269,    2266
       8,    2268,    2269,    2265
       9,    2271,    2261,    2264
      10,    2270,    2263,    2267
      11,    2270,    2272,    2271
      12,    2260,    2262,    2273
      13,    2271,    2264,    2270
      14,    2272,    2266,    2269
      15,    2271,    2272,    2273
      16,    2260,    2273,    2268
      17,    2273,    2262,    2271
*ELEMENT, TYPE=STRI3, ELSET=C_phase2
      18,    2242,    2252,    2253
      19,    2248,    2233,    2236
      20,    2245,    2259,    2258
      21,    2242,    2240,    2235
      22,    2236,    2233,    2234
      23,    2236,    2250,    2248
      24,    2251,    2255,    2259
      25,    2237,    2256,    2250
      26,    2250,    2256,    2255
      27,    2254,    2239,    2253
      28,    2253,    2240,    2242
      29,    2241,    2252,    2242
      30,    2243,    2251,    2244
      31,    2247,    2248,    2250
      32,    2254,    2257,    2238
      33,    2246,    2245,    2258
      34,    2247,    2251,    2243
      35,    2237,    2250,    2236
      36,    2250,    2251,    2247
      37,    2244,    2251,    2259
** ... 16 like lines cut
*ELEMENT, TYPE=STRI3, ELSET=C_phase3
      54,    2176,    2161,    2184
      55,    2135,    2183,    2144
      56,    2155,    2206,    2218
      57,    2179,    2188,    2224
      58,    2142,    2201,    2192
      59,    2168,    2181,    2207
      60,    2154,    2153,    2172
      61,    2152,    2188,    2179
      62,    2204,    2208,    2176
      63,    2180,    2221,    2134
      64,    2205,    2203,    2175
      65,    2214,    2170,    2215
      66,    2162,    2209,    2207
      67,    2203,    2223,    2175
      68,    2207,    2181,    2172
      69,    2192,    2214,    2141
      70,    2194,    2190,    2164
      71,    2196,    2175,    2215
      72,    2143,    2201,    2142
      73,    2177,    2173,    2183
** ... 149 like lines cut
*ELEMENT, TYPE=STRI3, ELSET=C_phase4
     223,    1958,    1962,    1960
     224,    1951,    1956,    1958
     225,    1943,    1961,    1953
     226,    1946,    1964,    1949
     227,    1943,    1953,    1941
     228,    1961,    1963,    1953
     229,    1942,    1966,    1959
     230,    1954,    1962,    1955
     231,    1957,    1961,    1959
     232,    1963,    1954,    1953
     233,    1960,    1965,    1948
     234,    1942,    1959,    1944
     235,    1956,    1951,    1950
     236,    1951,    1958,    1952
     237,    1947,    1965,    1959
     238,    1955,    1962,    1958
     239,    1964,    1960,    1949
     240,    1958,    1956,    1955
     241,    1945,    1966,    1942
     242,    1959,    1965,    1957
** ... 14 like lines cut
*ELEMENT, TYPE=STRI3, ELSET=C_phase5
     257,    2017,    2049,    2104
     258,    2038,    2039,    1994
     259,    1994,    1982,    2038
     260,    1974,    1972,    2046
     261,    1996,    2028,    1997
     262,    2128,    2013,    2074
     263,    1973,    1969,    1967
     264,    1970,    1973,    1974
     265,    2008,    2007,    2047
     266,    1969,    1973,    1970
     267,    2046,    2051,    1970
     268,    2049,    2016,    2105
     269,    1977,    2085,    1976
     270,    2105,    2016,    1971
     271,    2009,    2052,    2010
     272,    2030,    2105,    2051
     273,    2044,    2056,    2002
     274,    1978,    2050,    1977
     275,    2093,    1980,    2057
     276,    2052,    2088,    2010
** ... 254 like lines cut
*ELEMENT, TYPE=STRI3, ELSET=C_phase6
     531,    1924,    1923,    1935
     532,    1934,    1940,    1937
     533,    1924,    1939,    1922
     534,    1937,    1940,    1928
     535,    1922,    1939,    1933
     536,    1935,    1926,    1936
     537,    1938,    1934,    1926
     538,    1927,    1931,    1928
     539,    1931,    1937,    1928
     540,    1934,    1932,    1936
     541,    1934,    1938,    1940
     542,    1930,    1932,    1937
     543,    1935,    1923,    1926
     544,    1936,    1932,    1933
     545,    1936,    1939,    1935
     546,    1936,    1926,    1934
     547,    1930,    1937,    1931
     548,    1937,    1932,    1934
     549,    1925,    1938,    1926
     550,    1925,    1929,    1938
** ... 4 like lines cut
*ELEMENT, TYPE=STRI3, ELSET=C_phase7
     555,    1880,    1878,    1899
     556,    1898,    1886,    1892
     557,    1894,    1899,    1891
     558,    1890,    1889,    1892
     559,    1888,    1893,    1896
     560,    1882,    1885,    1895
     561,    1894,    1891,    1896
     562,    1881,    1893,    1879
     563,    1893,    1894,    1896
     564,    1886,    1884,    1890
     565,    1892,    1889,    1896
     566,    1885,    1898,    1895
     567,    1878,    1897,    1899
     568,    1886,    1890,    1892
     569,    1891,    1897,    1900
     570,    1893,    1887,    1879
     571,    1887,    1893,    1888
     572,    1880,    1899,    1881
     573,    1881,    1894,    1893
     574,    1883,    1882,    1895
** ... 11 like lines cut
*ELEMENT, TYPE=STRI3, ELSET=C_phase8
     586,    1841,    1839,    1864
     587,    1847,    1864,    1845
     588,    1865,    1848,    1866
     589,    1851,    1876,    1877
     590,    1859,    1872,    1874
     591,    1859,    1873,    1875
     592,    1873,    1859,    1865
     593,    1864,    1859,    1874
     594,    1866,    1849,    1869
     595,    1858,    1866,    1869
     596,    1857,    1861,    1876
     597,    1843,    1863,    1844
     598,    1852,    1862,    1870
     599,    1862,    1863,    1870
     600,    1849,    1850,    1869
     601,    1868,    1858,    1871
     602,    1856,    1855,    1871
     603,    1853,    1867,    1854
     604,    1858,    1860,    1871
     605,    1841,    1874,    1842
** ... 37 like lines cut
*ELEMENT, TYPE=STRI3, ELSET=C_phase9
     643,    1919,    1906,    1912
     644,    1916,    1903,    1918
     645,    1905,    1914,    1915
     646,    1911,    1901,    1916
     647,    1914,    1907,    1920
     648,    1908,    1909,    1917
     649,    1909,    1910,    1917
     650,    1910,    1906,    1919
     651,    1901,    1903,    1916
     652,    1902,    1907,    1914
     653,    1908,    1917,    1920
     654,    1915,    1914,    1913
     655,    1905,    1902,    1914
     656,    1915,    1913,    1919
     657,    1904,    1905,    1915
     658,    1921,    1912,    1911
     659,    1918,    1921,    1916
     660,    1903,    1904,    1918
     661,    1917,    1913,    1920
     662,    1917,    1910,    1919
** ... 8 like lines cut
*ELEMENT, TYPE=STRI3, ELSET=C_phase10
     671,    1753,    1749,    1754
     672,    1739,    1741,    1750
     673,    1752,    1750,    1741
     674,    1754,    1749,    1751
     675,    1746,    1745,    1751
     676,    1736,    1753,    1737
     677,    1738,    1741,    1739
     678,    1750,    1753,    1736
     679,    1740,    1752,    1741
     680,    1742,    1746,    1743
     681,    1735,    1737,    1747
     682,    1746,    1751,    1743
     683,    1744,    1755,    1752
     684,    1753,    1747,    1737
     685,    1739,    1750,    1736
     686,    1749,    1750,    1752
     687,    1751,    1755,    1743
     688,    1751,    1745,    1748
     689,    1744,    1752,    1740
     690,    1752,    1755,    1749
** ... 6 like lines cut
*ELEMENT, TYPE=STRI3, ELSET=C_phase11
     697,    1701,    1703,    1722
     698,    1722,    1726,    1719
     699,    1730,    1717,    1731
     700,    1709,    1729,    1725
     701,    1700,    1719,    1697
     702,    1694,    1698,    1723
     703,    1703,    1704,    1722
     704,    1719,    1732,    1698
     705,    1710,    1725,    1727
     706,    1699,    1703,    1701
     707,    1730,    1734,    1727
     708,    1717,    1726,    1731
     709,    1711,    1714,    1716
     710,    1720,    1721,    1716
     711,    1718,    1712,    1716
     712,    1718,    1729,    1708
     713,    1707,    1712,    1718
     714,    1724,    1696,    1723
     715,    1728,    1733,    1715
     716,    1702,    1710,    1727
** ... 39 like lines cut
*ELEMENT, TYPE=STRI3, ELSET=C_phase12
     756,    1690,    1684,    1689
     757,    1683,    1691,    1681
     758,    1690,    1693,    1691
     759,    1688,    1690,    1689
     760,    1692,    1683,    1682
     761,    1681,    1691,    1686
     762,    1685,    1684,    1690
     763,    1687,    1690,    1688
     764,    1685,    1690,    1692
     765,    1691,    1692,    1690
     766,    1691,    1693,    1686
     767,    1685,    1692,    1682
     768,    1683,    1692,    1691
     769,    1687,    1693,    1690
     770,    1687,    1686,    1693
*ELEMENT, TYPE=STRI3, ELSET=C_phase13
     771,    1803,    1809,    1786
     772,    1818,    1819,    1758
     773,    1784,    1794,    1776
     774,    1811,    1814,    1808
     775,    1765,    1805,    1818
     776,    1805,    1789,    1818
     777,    1761,    1802,    1762
     778,    1825,    1822,    1791
     779,    1767,    1772,    1801
     780,    1769,    1800,    1799
     781,    1797,    1768,    1799
     782,    1769,    1770,    1800
     783,    1806,    1787,    1801
     784,    1800,    1770,    1801
     785,    1804,    1774,    1775
     786,    1780,    1779,    1816
     787,    1810,    1802,    1803
     788,    1804,    1794,    1795
     789,    1817,    1802,    1788
     790,    1815,    1788,    1813
** ... 115 like lines cut
*ELEMENT, TYPE=STRI3, ELSET=C_phase14
     906,    1595,    1615,    1589
     907,    1610,    1589,    1633
     908,    1591,    1615,    1625
     909,    1565,    1563,    1600
     910,    1602,    1594,    1619
     911,    1583,    1601,    1579
     912,    1566,    1565,    1616
     913,    1567,    1599,    1564
     914,    1577,    1606,    1627
     915,    1565,    1600,    1616
     916,    1604,    1632,    1609
     917,    1571,    1572,    1602
     918,    1575,    1598,    1568
     919,    1601,    1574,    1579
     920,    1588,    1581,    1580
     921,    1597,    1595,    1624
     922,    1590,    1629,    1611
     923,    1613,    1588,    1597
     924,    1583,    1582,    1612
     925,    1567,    1605,    1617
** ... 96 like lines cut
*ELEMENT, TYPE=STRI3, ELSET=C_phase15
    1022,    1657,    1680,    1675
    1023,    1660,    1648,    1664
    1024,    1635,    1663,    1636
    1025,    1669,    1664,    1667
    1026,    1645,    1662,    1644
    1027,    1640,    1639,    1676
    1028,    1647,    1674,    1646
    1029,    1660,    1656,    1674
    1030,    1648,    1660,    1647
    1031,    1671,    1639,    1638
    1032,    1639,    1671,    1672
    1033,    1639,    1672,    1676
    1034,    1641,    1640,    1676
    1035,    1655,    1669,    1658
    1036,    1659,    1658,    1668
    1037,    1666,    1678,    1663
    1038,    1666,    1658,    1678
    1039,    1650,    1654,    1659
    1040,    1663,    1635,    1665
    1041,    1666,    1655,    1658
** ... 50 like lines cut
*ELEMENT, TYPE=STRI3, ELSET=C_phase16
    1092,    1456,    1470,    1465
    1093,    1455,    1451,    1473
    1094,    1449,    1448,    1455
    1095,    1466,    1479,    1433
    1096,    1469,    1471,    1437
    1097,    1435,    1469,    1437
    1098,    1472,    1453,    1475
    1099,    1441,    1440,    1485
    1100,    1432,    1428,    1477
    1101,    1475,    1470,    1456
    1102,    1431,    1432,    1478
    1103,    1468,    1429,    1430
    1104,    1462,    1478,    1487
    1105,    1466,    1433,    1436
    1106,    1462,    1468,    1430
    1107,    1457,    1483,    1469
    1108,    1438,    1457,    1435
    1109,    1465,    1474,    1456
    1110,    1461,    1460,    1485
    1111,    1443,    1458,    1439
** ... 87 like lines cut
*ELEMENT, TYPE=STRI3, ELSET=C_phase17
    1199,    1288,    1367,    1328
    1200,    1333,    1352,    1290
    1201,    1268,    1266,    1332
    1202,    1338,    1398,    1420
    1203,    1278,    1286,    1330
    1204,    1311,    1391,    1390
    1205,    1289,    1297,    1333
    1206,    1306,    1373,    1372
    1207,    1379,    1332,    1335
    1208,    1372,    1373,    1317
    1209,    1276,    1392,    1277
    1210,    1276,    1275,    1366
    1211,    1331,    1365,    1392
    1212,    1364,    1271,    1365
    1213,    1269,    1392,    1272
    1214,    1295,    1344,    1341
    1215,    1397,    1325,    1356
    1216,    1283,    1282,    1416
    1217,    1273,    1283,    1358
    1218,    1358,    1336,    1313
** ... 259 like lines cut
*ELEMENT, TYPE=STRI3, ELSET=C_phase18
    1478,    1247,    1226,    1255
    1479,    1224,    1226,    1247
    1480,    1220,    1253,    1219
    1481,    1250,    1221,    1251
    1482,    1241,    1234,    1233
    1483,    1253,    1220,    1250
    1484,    1219,    1263,    1213
    1485,    1217,    1249,    1237
    1486,    1244,    1255,    1245
    1487,    1256,    1224,    1247
    1488,    1254,    1222,    1256
    1489,    1224,    1223,    1226
    1490,    1242,    1231,    1243
    1491,    1251,    1264,    1235
    1492,    1237,    1262,    1241
    1493,    1231,    1242,    1225
    1494,    1243,    1231,    1248
    1495,    1214,    1217,    1237
    1496,    1237,    1241,    1232
    1497,    1239,    1257,    1262
** ... 60 like lines cut
*ELEMENT, TYPE=STRI3, ELSET=C_phase19
    1558,    1495,    1535,    1494
    1559,    1498,    1545,    1497
    1560,    1548,    1547,    1530
    1561,    1528,    1534,    1527
    1562,    1555,    1552,    1531
    1563,    1558,    1556,    1532
    1564,    1546,    1549,    1529
    1565,    1513,    1512,    1544
    1566,    1538,    1504,    1539
    1567,    1507,    1533,    1506
    1568,    1511,    1533,    1507
    1569,    1511,    1508,    1510
    1570,    1510,    1508,    1496
    1571,    1511,    1507,    1508
    1572,    1539,    1550,    1530
    1573,    1548,    1562,    1547
    1574,    1543,    1539,    1530
    1575,    1521,    1542,    1540
    1576,    1544,    1516,    1561
    1577,    1515,    1520,    1518
** ... 81 like lines cut
*ELEMENT, TYPE=STRI3, ELSET=C_phase20
    1659,    1195,    1208,    1196
    1660,    1182,    1183,    1209
    1661,    1197,    1208,    1210
    1662,    1181,    1211,    1203
    1663,    1209,    1183,    1204
    1664,    1202,    1200,    1199
    1665,    1203,    1205,    1192
    1666,    1201,    1186,    1206
    1667,    1200,    1195,    1196
    1668,    1199,    1200,    1196
    1669,    1208,    1197,    1206
    1670,    1190,    1189,    1202
    1671,    1203,    1192,    1179
    1672,    1207,    1202,    1194
    1673,    1187,    1188,    1196
    1674,    1187,    1196,    1206
    1675,    1191,    1199,    1185
    1676,    1185,    1196,    1188
    1677,    1184,    1201,    1180
    1678,    1205,    1193,    1192
** ... 30 like lines cut
*ELEMENT, TYPE=STRI3, ELSET=C_phase21
    1709,    1005,    1088,    1058
    1710,    1080,    1055,    1038
    1711,    1005,    1058,     993
    1712,    1058,    1088,    1097
    1713,    1025,    1077,    1051
    1714,    1096,    1097,    1044
    1715,    1114,    1131,    1107
    1716,    1027,    1026,    1041
    1717,    1084,    1132,    1041
    1718,    1046,    1091,    1110
    1719,    1028,    1041,    1026
    1720,    1043,    1063,    1086
    1721,    1029,    1082,    1059
    1722,     988,     994,     990
    1723,    1055,    1075,    1038
    1724,     996,    1075,     995
    1725,     995,    1075,    1055
    1726,    1038,    1133,    1081
    1727,     999,    1069,     998
    1728,    1074,     998,    1069
** ... 226 like lines cut
*ELEMENT, TYPE=STRI3, ELSET=C_phase22
    1955,     967,     966,     955
    1956,     926,     966,     931
    1957,     951,     972,     962
    1958,     951,     965,     972
    1959,     927,     963,     925
    1960,     934,     966,     932
    1961,     925,     963,     947
    1962,     948,     976,     958
    1963,     974,     973,     929
    1964,     930,     967,     974
    1965,     979,     964,     953
    1966,     974,     980,     987
    1967,     961,     962,     943
    1968,     959,     975,     971
    1969,     964,     928,     973
    1970,     937,     970,     936
    1971,     946,     956,     961
    1972,     962,     972,     933
    1973,     937,     969,     970
    1974,     943,     962,     941
** ... 78 like lines cut
*ELEMENT, TYPE=STRI3, ELSET=C_phase23
    2053,     916,     924,     921
    2054,     921,     917,     916
    2055,     912,     910,     921
    2056,     914,     913,     922
    2057,     919,     924,     916
    2058,     918,     923,     920
    2059,     921,     910,     915
    2060,     911,     923,     918
    2061,     914,     922,     923
    2062,     913,     912,     924
    2063,     921,     915,     917
    2064,     922,     924,     919
    2065,     919,     920,     922
    2066,     914,     923,     911
    2067,     923,     922,     920
    2068,     913,     924,     922
    2069,     924,     912,     921
*ELEMENT, TYPE=STRI3, ELSET=C_phase24
    2070,    1168,    1177,    1157
    2071,    1134,    1157,    1153
    2072,    1151,    1167,    1158
    2073,    1138,    1156,    1139
    2074,    1169,    1144,    1145
    2075,    1147,    1166,    1159
    2076,    1170,    1141,    1142
    2077,    1159,    1165,    1147
    2078,    1135,    1164,    1137
    2079,    1142,    1140,    1163
    2080,    1164,    1162,    1137
    2081,    1177,    1155,    1172
    2082,    1172,    1167,    1153
    2083,    1163,    1144,    1169
    2084,    1143,    1160,    1145
    2085,    1155,    1174,    1172
    2086,    1146,    1152,    1158
    2087,    1161,    1165,    1178
    2088,    1156,    1141,    1170
    2089,    1149,    1161,    1160
** ... 48 like lines cut
*ELEMENT, TYPE=STRI3, ELSET=C_phase25
    2138,     697,     700,     701
    2139,     700,     705,     682
    2140,     700,     682,     698
    2141,     689,     688,     694
    2142,     699,     697,     703
    2143,     680,     677,     682
    2144,     692,     695,     688
    2145,     687,     683,     681
    2146,     684,     689,     694
    2147,     683,     687,     698
    2148,     685,     693,     696
    2149,     682,     683,     698
    2150,     676,     678,     690
    2151,     690,     678,     699
    2152,     691,     704,     692
    2153,     693,     685,     684
    2154,     693,     695,     696
    2155,     693,     684,     694
    2156,     695,     694,     688
    2157,     693,     694,     695
** ... 21 like lines cut
*ELEMENT, TYPE=STRI3, ELSET=C_phase26
    2179,     674,     653,     657
    2180,     655,     653,     674
    2181,     671,     674,     657
    2182,     651,     673,     652
    2183,     662,     673,     666
    2184,     652,     673,     662
    2185,     668,     664,     672
    2186,     666,     671,     669
    2187,     669,     672,     675
    2188,     656,     659,     671
    2189,     667,     668,     661
    2190,     665,     667,     658
    2191,     658,     667,     661
    2192,     669,     675,     666
    2193,     666,     654,     655
    2194,     664,     667,     665
    2195,     661,     668,     660
    2196,     664,     668,     667
    2197,     660,     670,     659
    2198,     672,     670,     668
** ... 13 like lines cut
*ELEMENT, TYPE=STRI3, ELSET=C_phase27
    2212,     625,     645,     635
    2213,     628,     640,     639
    2214,     610,     645,     611
    2215,     626,     620,     633
    2216,     604,     601,     636
    2217,     632,     623,     631
    2218,     625,     632,     636
    2219,     630,     613,     612
    2220,     605,     634,     606
    2221,     629,     607,     641
    2222,     638,     622,     635
    2223,     610,     609,     635
    2224,     614,     620,     628
    2225,     623,     644,     650
    2226,     617,     627,     618
    2227,     624,     627,     642
    2228,     619,     630,     612
    2229,     630,     619,     643
    2230,     600,     602,     633
    2231,     626,     603,     631
** ... 58 like lines cut
*ELEMENT, TYPE=STRI3, ELSET=C_phase28
    2290,     707,     706,     820
    2291,     737,     857,     825
    2292,     722,     724,     788
    2293,     721,     816,     804
    2294,     719,     718,     804
    2295,     767,     803,     802
    2296,     726,     727,     824
    2297,     733,     735,     823
    2298,     748,     844,     749
    2299,     822,     751,     869
    2300,     814,     874,     821
    2301,     858,     786,     856
    2302,     844,     789,     865
    2303,     706,     876,     820
    2304,     819,     707,     826
    2305,     708,     819,     709
    2306,     778,     833,     895
    2307,     858,     795,     859
    2308,     731,     732,     810
    2309,     790,     848,     818
** ... 316 like lines cut
*ELEMENT, TYPE=STRI3, ELSET=C_phase29
    2626,     320,     155,     323
    2627,     205,      63,      62
    2628,      56,      54,     167
    2629,      60,     195,      61
    2630,     326,     324,     156
    2631,     254,     263,     264
    2632,      79,      77,      75
    2633,      89,      88,     204
    2634,      80,     109,      81
    2635,      98,      97,     211
    2636,     538,     154,     591
    2637,     135,     309,     308
    2638,     379,      47,     281
    2639,     155,     282,     184
    2640,     185,     519,     341
    2641,      53,      52,     346
    2642,     283,      41,     361
    2643,      31,     363,      32
    2644,     201,     236,      28
    2645,      26,      33,     201
** ... 1036 like lines cut
*ELEMENT, TYPE=STRI3, ELSET=C_phase30
    3682,      14,      17,      18
    3683,      10,       5,      16
    3684,       9,      14,      10
    3685,       1,      13,      12
    3686,      14,       5,      10
    3687,      14,       3,       2
    3688,      13,      15,      12
    3689,      13,      17,       8
    3690,       5,       4,      16
    3691,      15,       7,      11
    3692,      19,       3,      18
    3693,       7,      15,       8
    3694,      17,       9,       8
    3695,      14,       2,       5
    3696,      15,      13,       8
    3697,      15,      11,      12
    3698,       6,      10,      16
    3699,       6,      16,       4
    3700,      14,       9,      17
    3701,      17,      13,      18
** ... 4 like lines cut
**
********************************** P R O P E R T I E S ************************
*SHELL SECTION, ELSET=C_phase1, SECTION INTEGRATION=SIMPSON, MATERIAL=Default-Steel
1.0000000000000000e+00
*SHELL SECTION, ELSET=C_phase2, SECTION INTEGRATION=SIMPSON, MATERIAL=Default-Steel
1.0000000000000000e+00
*SHELL SECTION, ELSET=C_phase3, SECTION INTEGRATION=SIMPSON, MATERIAL=Default-Steel
1.0000000000000000e+00
*SHELL SECTION, ELSET=C_phase4, SECTION INTEGRATION=SIMPSON, MATERIAL=Default-Steel
1.0000000000000000e+00
*SHELL SECTION, ELSET=C_phase5, SECTION INTEGRATION=SIMPSON, MATERIAL=Default-Steel
1.0000000000000000e+00
*SHELL SECTION, ELSET=C_phase6, SECTION INTEGRATION=SIMPSON, MATERIAL=Default-Steel
1.0000000000000000e+00
*SHELL SECTION, ELSET=C_phase7, SECTION INTEGRATION=SIMPSON, MATERIAL=Default-Steel
1.0000000000000000e+00
*SHELL SECTION, ELSET=C_phase8, SECTION INTEGRATION=SIMPSON, MATERIAL=Default-Steel
1.0000000000000000e+00
*SHELL SECTION, ELSET=C_phase9, SECTION INTEGRATION=SIMPSON, MATERIAL=Default-Steel
1.0000000000000000e+00
*SHELL SECTION, ELSET=C_phase10, SECTION INTEGRATION=SIMPSON, MATERIAL=Default-Steel
1.0000000000000000e+00
*SHELL SECTION, ELSET=C_phase11, SECTION INTEGRATION=SIMPSON, MATERIAL=Default-Steel
1.0000000000000000e+00
*SHELL SECTION, ELSET=C_phase12, SECTION INTEGRATION=SIMPSON, MATERIAL=Default-Steel
1.0000000000000000e+00
*SHELL SECTION, ELSET=C_phase13, SECTION INTEGRATION=SIMPSON, MATERIAL=Default-Steel
1.0000000000000000e+00
*SHELL SECTION, ELSET=C_phase14, SECTION INTEGRATION=SIMPSON, MATERIAL=Default-Steel
1.0000000000000000e+00
*SHELL SECTION, ELSET=C_phase15, SECTION INTEGRATION=SIMPSON, MATERIAL=Default-Steel
1.0000000000000000e+00
*SHELL SECTION, ELSET=C_phase16, SECTION INTEGRATION=SIMPSON, MATERIAL=Default-Steel
1.0000000000000000e+00
*SHELL SECTION, ELSET=C_phase17, SECTION INTEGRATION=SIMPSON, MATERIAL=Default-Steel
1.0000000000000000e+00
*SHELL SECTION, ELSET=C_phase18, SECTION INTEGRATION=SIMPSON, MATERIAL=Default-Steel
1.0000000000000000e+00
*SHELL SECTION, ELSET=C_phase19, SECTION INTEGRATION=SIMPSON, MATERIAL=Default-Steel
1.0000000000000000e+00
*SHELL SECTION, ELSET=C_phase20, SECTION INTEGRATION=SIMPSON, MATERIAL=Default-Steel
1.0000000000000000e+00
** ... 20 like lines cut
**
*END PART
**
**
**
********************************** E N D   P A R T S **********************************
**
**
********************************** A S S E M B L Y ************************************
**
*ASSEMBLY, NAME=ASSEMBLY1
**
*INSTANCE, NAME=Part-Default_1, PART=Part-Default
*END INSTANCE
**
*END ASSEMBLY
**
**
**
*MATERIAL, NAME = Default-Steel
*ELASTIC, TYPE=ISOTROPIC
2.0680000000000000e+05, 2.8999999999999998e-01
*DENSITY
6.9999999999999999e-06
*CONDUCTIVITY,TYPE=ISO
4.4999999999999998e-02
*SPECIFIC HEAT
5.0000000000000000e+02
**
**
************************************** H I S T O R Y *************************************
**
*PREPRINT
**
**************************************** S T E P 1 ***************************************
*STEP,INC=100,NAME=Default Set
**
*STATIC
1, 1, 1e-05, 1
**
**
**
**
*END STEP
