*HEADING
cubit(rojects/E3CB/grain2mesh/example/results/finalMeshTest.inp): 10/14/2025: 18
version: 16.16.1
**
********************************** P A R T S **********************************
*PART, NAME=Part-Default
**
********************************** N O D E S **********************************
*NODE, NSET=ALLNODES
       1,    8.5000000000000000e+01,    2.3000000000000000e+01,    0.0000000000000000e+00
       2,    8.2000000000000000e+01,    3.9000000000000000e+01,    0.0000000000000000e+00
       3,    8.4588682211605601e+01,    3.1531218759571349e+01,    0.0000000000000000e+00
       4,    7.5000000000000000e+01,    4.6000000000000000e+01,    0.0000000000000000e+00
       5,    7.7148818252314285e+01,    4.0845538527004976e+01,    0.0000000000000000e+00
       6,    6.9000000000000000e+01,    4.5000000000000000e+01,    0.0000000000000000e+00
       7,    7.6000000000000000e+01,    1.8000000000000000e+01,    0.0000000000000000e+00
       8,    7.3123172234095151e+01,    2.4390708344528100e+01,    0.0000000000000000e+00
       9,    7.1086919842637272e+01,    3.1125014247428801e+01,    0.0000000000000000e+00
      10,    7.0946012339786421e+01,    3.8105555508186853e+01,    0.0000000000000000e+00
      11,    8.1000000000000000e+01,    1.8000000000000000e+01,    0.0000000000000000e+00
      12,    8.2944809755077870e+01,    2.0447444618011055e+01,    0.0000000000000000e+00
      13,    7.9190384762468867e+01,    2.5074014563368991e+01,    0.0000000000000000e+00
      14,    7.7206215189613062e+01,    3.4741897508050442e+01,    0.0000000000000000e+00
      15,    7.8042237944916977e+01,    2.1435691321604999e+01,    0.0000000000000000e+00
      16,    7.2915573256108303e+01,    4.2389288136922858e+01,    0.0000000000000000e+00
      17,    7.5731444143272483e+01,    2.9090088601040584e+01,    0.0000000000000000e+00
      18,    7.9719095571557830e+01,    3.0024046837331984e+01,    0.0000000000000000e+00
      19,    8.2375261827917029e+01,    2.7289182683697959e+01,    0.0000000000000000e+00
      20,    1.7600000000000000e+02,    6.9000000000000000e+01,    0.0000000000000000e+00
** ... 2253 like lines cut
**
********************************** E L E M E N T S ****************************
*ELEMENT, TYPE=STRI3, ELSET=EB107
       1,    2273,    2272,    2269
       2,    2262,    2261,    2271
       3,    2267,    2266,    2272
       4,    2273,    2269,    2268
       5,    2267,    2272,    2270
       6,    2264,    2263,    2270
       7,    2265,    2269,    2266
       8,    2268,    2269,    2265
       9,    2271,    2261,    2264
      10,    2270,    2263,    2267
      11,    2270,    2272,    2271
      12,    2260,    2262,    2273
      13,    2271,    2264,    2270
      14,    2272,    2266,    2269
      15,    2271,    2272,    2273
      16,    2260,    2273,    2268
      17,    2273,    2262,    2271
*ELEMENT, TYPE=STRI3, ELSET=EB55
      18,      14,      17,      18
      19,      10,       5,      16
      20,       9,      14,      10
      21,       1,      13,      12
      22,      14,       5,      10
      23,      14,       3,       2
      24,      13,      15,      12
      25,      13,      17,       8
      26,       5,       4,      16
      27,      15,       7,      11
      28,      19,       3,      18
      29,       7,      15,       8
      30,      17,       9,       8
      31,      14,       2,       5
      32,      15,      13,       8
      33,      15,      11,      12
      34,       6,      10,      16
      35,       6,      16,       4
      36,      14,       9,      17
      37,      17,      13,      18
** ... 4 like lines cut
*ELEMENT, TYPE=STRI3, ELSET=EB56
      42,     320,     155,     323
      43,     205,      63,      62
      44,      56,      54,     167
      45,      60,     195,      61
      46,     326,     324,     156
      47,     254,     263,     264
      48,      79,      77,      75
      49,      89,      88,     204
      50,      80,     109,      81
      51,      98,      97,     211
      52,     538,     154,     591
      53,     135,     309,     308
      54,     379,      47,     281
      55,     155,     282,     184
      56,     185,     519,     341
      57,      53,      52,     346
      58,     283,      41,     361
      59,      31,     363,      32
      60,     201,     236,      28
      61,      26,      33,     201
** ... 1036 like lines cut
*ELEMENT, TYPE=STRI3, ELSET=EB57
    1098,     625,     645,     635
    1099,     628,     640,     639
    1100,     610,     645,     611
    1101,     626,     620,     633
    1102,     604,     601,     636
    1103,     632,     623,     631
    1104,     625,     632,     636
    1105,     630,     613,     612
    1106,     605,     634,     606
    1107,     629,     607,     641
    1108,     638,     622,     635
    1109,     610,     609,     635
    1110,     614,     620,     628
    1111,     623,     644,     650
    1112,     617,     627,     618
    1113,     624,     627,     642
    1114,     619,     630,     612
    1115,     630,     619,     643
    1116,     600,     602,     633
    1117,     626,     603,     631
** ... 58 like lines cut
*ELEMENT, TYPE=STRI3, ELSET=EB58
    1176,     674,     653,     657
    1177,     655,     653,     674
    1178,     671,     674,     657
    1179,     651,     673,     652
    1180,     662,     673,     666
    1181,     652,     673,     662
    1182,     668,     664,     672
    1183,     666,     671,     669
    1184,     669,     672,     675
    1185,     656,     659,     671
    1186,     667,     668,     661
    1187,     665,     667,     658
    1188,     658,     667,     661
    1189,     669,     675,     666
    1190,     666,     654,     655
    1191,     664,     667,     665
    1192,     661,     668,     660
    1193,     664,     668,     667
    1194,     660,     670,     659
    1195,     672,     670,     668
** ... 13 like lines cut
*ELEMENT, TYPE=STRI3, ELSET=EB59
    1209,     697,     700,     701
    1210,     700,     705,     682
    1211,     700,     682,     698
    1212,     689,     688,     694
    1213,     699,     697,     703
    1214,     680,     677,     682
    1215,     692,     695,     688
    1216,     687,     683,     681
    1217,     684,     689,     694
    1218,     683,     687,     698
    1219,     685,     693,     696
    1220,     682,     683,     698
    1221,     676,     678,     690
    1222,     690,     678,     699
    1223,     691,     704,     692
    1224,     693,     685,     684
    1225,     693,     695,     696
    1226,     693,     684,     694
    1227,     695,     694,     688
    1228,     693,     694,     695
** ... 21 like lines cut
*ELEMENT, TYPE=STRI3, ELSET=EB60
    1250,     707,     706,     820
    1251,     737,     857,     825
    1252,     722,     724,     788
    1253,     721,     816,     804
    1254,     719,     718,     804
    1255,     767,     803,     802
    1256,     726,     727,     824
    1257,     733,     735,     823
    1258,     748,     844,     749
    1259,     822,     751,     869
    1260,     814,     874,     821
    1261,     858,     786,     856
    1262,     844,     789,     865
    1263,     706,     876,     820
    1264,     819,     707,     826
    1265,     708,     819,     709
    1266,     778,     833,     895
    1267,     858,     795,     859
    1268,     731,     732,     810
    1269,     790,     848,     818
** ... 316 like lines cut
*ELEMENT, TYPE=STRI3, ELSET=EB61
    1586,     916,     924,     921
    1587,     921,     917,     916
    1588,     912,     910,     921
    1589,     914,     913,     922
    1590,     919,     924,     916
    1591,     918,     923,     920
    1592,     921,     910,     915
    1593,     911,     923,     918
    1594,     914,     922,     923
    1595,     913,     912,     924
    1596,     921,     915,     917
    1597,     922,     924,     919
    1598,     919,     920,     922
    1599,     914,     923,     911
    1600,     923,     922,     920
    1601,     913,     924,     922
    1602,     924,     912,     921
*ELEMENT, TYPE=STRI3, ELSET=EB62
    1603,     967,     966,     955
    1604,     926,     966,     931
    1605,     951,     972,     962
    1606,     951,     965,     972
    1607,     927,     963,     925
    1608,     934,     966,     932
    1609,     925,     963,     947
    1610,     948,     976,     958
    1611,     974,     973,     929
    1612,     930,     967,     974
    1613,     979,     964,     953
    1614,     974,     980,     987
    1615,     961,     962,     943
    1616,     959,     975,     971
    1617,     964,     928,     973
    1618,     937,     970,     936
    1619,     946,     956,     961
    1620,     962,     972,     933
    1621,     937,     969,     970
    1622,     943,     962,     941
** ... 78 like lines cut
*ELEMENT, TYPE=STRI3, ELSET=EB63
    1701,    1005,    1088,    1058
    1702,    1080,    1055,    1038
    1703,    1005,    1058,     993
    1704,    1058,    1088,    1097
    1705,    1025,    1077,    1051
    1706,    1096,    1097,    1044
    1707,    1114,    1131,    1107
    1708,    1027,    1026,    1041
    1709,    1084,    1132,    1041
    1710,    1046,    1091,    1110
    1711,    1028,    1041,    1026
    1712,    1043,    1063,    1086
    1713,    1029,    1082,    1059
    1714,     988,     994,     990
    1715,    1055,    1075,    1038
    1716,     996,    1075,     995
    1717,     995,    1075,    1055
    1718,    1038,    1133,    1081
    1719,     999,    1069,     998
    1720,    1074,     998,    1069
** ... 226 like lines cut
*ELEMENT, TYPE=STRI3, ELSET=EB64
    1947,    1168,    1177,    1157
    1948,    1134,    1157,    1153
    1949,    1151,    1167,    1158
    1950,    1138,    1156,    1139
    1951,    1169,    1144,    1145
    1952,    1147,    1166,    1159
    1953,    1170,    1141,    1142
    1954,    1159,    1165,    1147
    1955,    1135,    1164,    1137
    1956,    1142,    1140,    1163
    1957,    1164,    1162,    1137
    1958,    1177,    1155,    1172
    1959,    1172,    1167,    1153
    1960,    1163,    1144,    1169
    1961,    1143,    1160,    1145
    1962,    1155,    1174,    1172
    1963,    1146,    1152,    1158
    1964,    1161,    1165,    1178
    1965,    1156,    1141,    1170
    1966,    1149,    1161,    1160
** ... 48 like lines cut
*ELEMENT, TYPE=STRI3, ELSET=EB65
    2015,    1195,    1208,    1196
    2016,    1182,    1183,    1209
    2017,    1197,    1208,    1210
    2018,    1181,    1211,    1203
    2019,    1209,    1183,    1204
    2020,    1202,    1200,    1199
    2021,    1203,    1205,    1192
    2022,    1201,    1186,    1206
    2023,    1200,    1195,    1196
    2024,    1199,    1200,    1196
    2025,    1208,    1197,    1206
    2026,    1190,    1189,    1202
    2027,    1203,    1192,    1179
    2028,    1207,    1202,    1194
    2029,    1187,    1188,    1196
    2030,    1187,    1196,    1206
    2031,    1191,    1199,    1185
    2032,    1185,    1196,    1188
    2033,    1184,    1201,    1180
    2034,    1205,    1193,    1192
** ... 30 like lines cut
*ELEMENT, TYPE=STRI3, ELSET=EB66
    2065,    1247,    1226,    1255
    2066,    1224,    1226,    1247
    2067,    1220,    1253,    1219
    2068,    1250,    1221,    1251
    2069,    1241,    1234,    1233
    2070,    1253,    1220,    1250
    2071,    1219,    1263,    1213
    2072,    1217,    1249,    1237
    2073,    1244,    1255,    1245
    2074,    1256,    1224,    1247
    2075,    1254,    1222,    1256
    2076,    1224,    1223,    1226
    2077,    1242,    1231,    1243
    2078,    1251,    1264,    1235
    2079,    1237,    1262,    1241
    2080,    1231,    1242,    1225
    2081,    1243,    1231,    1248
    2082,    1214,    1217,    1237
    2083,    1237,    1241,    1232
    2084,    1239,    1257,    1262
** ... 60 like lines cut
*ELEMENT, TYPE=STRI3, ELSET=EB67
    2145,    1288,    1367,    1328
    2146,    1333,    1352,    1290
    2147,    1268,    1266,    1332
    2148,    1338,    1398,    1420
    2149,    1278,    1286,    1330
    2150,    1311,    1391,    1390
    2151,    1289,    1297,    1333
    2152,    1306,    1373,    1372
    2153,    1379,    1332,    1335
    2154,    1372,    1373,    1317
    2155,    1276,    1392,    1277
    2156,    1276,    1275,    1366
    2157,    1331,    1365,    1392
    2158,    1364,    1271,    1365
    2159,    1269,    1392,    1272
    2160,    1295,    1344,    1341
    2161,    1397,    1325,    1356
    2162,    1283,    1282,    1416
    2163,    1273,    1283,    1358
    2164,    1358,    1336,    1313
** ... 259 like lines cut
*ELEMENT, TYPE=STRI3, ELSET=EB68
    2424,    1456,    1470,    1465
    2425,    1455,    1451,    1473
    2426,    1449,    1448,    1455
    2427,    1466,    1479,    1433
    2428,    1469,    1471,    1437
    2429,    1435,    1469,    1437
    2430,    1472,    1453,    1475
    2431,    1441,    1440,    1485
    2432,    1432,    1428,    1477
    2433,    1475,    1470,    1456
    2434,    1431,    1432,    1478
    2435,    1468,    1429,    1430
    2436,    1462,    1478,    1487
    2437,    1466,    1433,    1436
    2438,    1462,    1468,    1430
    2439,    1457,    1483,    1469
    2440,    1438,    1457,    1435
    2441,    1465,    1474,    1456
    2442,    1461,    1460,    1485
    2443,    1443,    1458,    1439
** ... 87 like lines cut
*ELEMENT, TYPE=STRI3, ELSET=EB69
    2531,    1495,    1535,    1494
    2532,    1498,    1545,    1497
    2533,    1548,    1547,    1530
    2534,    1528,    1534,    1527
    2535,    1555,    1552,    1531
    2536,    1558,    1556,    1532
    2537,    1546,    1549,    1529
    2538,    1513,    1512,    1544
    2539,    1538,    1504,    1539
    2540,    1507,    1533,    1506
    2541,    1511,    1533,    1507
    2542,    1511,    1508,    1510
    2543,    1510,    1508,    1496
    2544,    1511,    1507,    1508
    2545,    1539,    1550,    1530
    2546,    1548,    1562,    1547
    2547,    1543,    1539,    1530
    2548,    1521,    1542,    1540
    2549,    1544,    1516,    1561
    2550,    1515,    1520,    1518
** ... 81 like lines cut
*ELEMENT, TYPE=STRI3, ELSET=EB70
    2632,    1595,    1615,    1589
    2633,    1610,    1589,    1633
    2634,    1591,    1615,    1625
    2635,    1565,    1563,    1600
    2636,    1602,    1594,    1619
    2637,    1583,    1601,    1579
    2638,    1566,    1565,    1616
    2639,    1567,    1599,    1564
    2640,    1577,    1606,    1627
    2641,    1565,    1600,    1616
    2642,    1604,    1632,    1609
    2643,    1571,    1572,    1602
    2644,    1575,    1598,    1568
    2645,    1601,    1574,    1579
    2646,    1588,    1581,    1580
    2647,    1597,    1595,    1624
    2648,    1590,    1629,    1611
    2649,    1613,    1588,    1597
    2650,    1583,    1582,    1612
    2651,    1567,    1605,    1617
** ... 96 like lines cut
*ELEMENT, TYPE=STRI3, ELSET=EB71
    2748,    1657,    1680,    1675
    2749,    1660,    1648,    1664
    2750,    1635,    1663,    1636
    2751,    1669,    1664,    1667
    2752,    1645,    1662,    1644
    2753,    1640,    1639,    1676
    2754,    1647,    1674,    1646
    2755,    1660,    1656,    1674
    2756,    1648,    1660,    1647
    2757,    1671,    1639,    1638
    2758,    1639,    1671,    1672
    2759,    1639,    1672,    1676
    2760,    1641,    1640,    1676
    2761,    1655,    1669,    1658
    2762,    1659,    1658,    1668
    2763,    1666,    1678,    1663
    2764,    1666,    1658,    1678
    2765,    1650,    1654,    1659
    2766,    1663,    1635,    1665
    2767,    1666,    1655,    1658
** ... 50 like lines cut
*ELEMENT, TYPE=STRI3, ELSET=EB72
    2818,    1690,    1684,    1689
    2819,    1683,    1691,    1681
    2820,    1690,    1693,    1691
    2821,    1688,    1690,    1689
    2822,    1692,    1683,    1682
    2823,    1681,    1691,    1686
    2824,    1685,    1684,    1690
    2825,    1687,    1690,    1688
    2826,    1685,    1690,    1692
    2827,    1691,    1692,    1690
    2828,    1691,    1693,    1686
    2829,    1685,    1692,    1682
    2830,    1683,    1692,    1691
    2831,    1687,    1693,    1690
    2832,    1687,    1686,    1693
*ELEMENT, TYPE=STRI3, ELSET=EB73
    2833,    1701,    1703,    1722
    2834,    1722,    1726,    1719
    2835,    1730,    1717,    1731
    2836,    1709,    1729,    1725
    2837,    1700,    1719,    1697
    2838,    1694,    1698,    1723
    2839,    1703,    1704,    1722
    2840,    1719,    1732,    1698
    2841,    1710,    1725,    1727
    2842,    1699,    1703,    1701
    2843,    1730,    1734,    1727
    2844,    1717,    1726,    1731
    2845,    1711,    1714,    1716
    2846,    1720,    1721,    1716
    2847,    1718,    1712,    1716
    2848,    1718,    1729,    1708
    2849,    1707,    1712,    1718
    2850,    1724,    1696,    1723
    2851,    1728,    1733,    1715
    2852,    1702,    1710,    1727
** ... 39 like lines cut
*ELEMENT, TYPE=STRI3, ELSET=EB74
    2892,    1753,    1749,    1754
    2893,    1739,    1741,    1750
    2894,    1752,    1750,    1741
    2895,    1754,    1749,    1751
    2896,    1746,    1745,    1751
    2897,    1736,    1753,    1737
    2898,    1738,    1741,    1739
    2899,    1750,    1753,    1736
    2900,    1740,    1752,    1741
    2901,    1742,    1746,    1743
    2902,    1735,    1737,    1747
    2903,    1746,    1751,    1743
    2904,    1744,    1755,    1752
    2905,    1753,    1747,    1737
    2906,    1739,    1750,    1736
    2907,    1749,    1750,    1752
    2908,    1751,    1755,    1743
    2909,    1751,    1745,    1748
    2910,    1744,    1752,    1740
    2911,    1752,    1755,    1749
** ... 6 like lines cut
*ELEMENT, TYPE=STRI3, ELSET=EB75
    2918,    1803,    1809,    1786
    2919,    1818,    1819,    1758
    2920,    1784,    1794,    1776
    2921,    1811,    1814,    1808
    2922,    1765,    1805,    1818
    2923,    1805,    1789,    1818
    2924,    1761,    1802,    1762
    2925,    1825,    1822,    1791
    2926,    1767,    1772,    1801
    2927,    1769,    1800,    1799
    2928,    1797,    1768,    1799
    2929,    1769,    1770,    1800
    2930,    1806,    1787,    1801
    2931,    1800,    1770,    1801
    2932,    1804,    1774,    1775
    2933,    1780,    1779,    1816
    2934,    1810,    1802,    1803
    2935,    1804,    1794,    1795
    2936,    1817,    1802,    1788
    2937,    1815,    1788,    1813
** ... 115 like lines cut
*ELEMENT, TYPE=STRI3, ELSET=EB76
    3053,    1841,    1839,    1864
    3054,    1847,    1864,    1845
    3055,    1865,    1848,    1866
    3056,    1851,    1876,    1877
    3057,    1859,    1872,    1874
    3058,    1859,    1873,    1875
    3059,    1873,    1859,    1865
    3060,    1864,    1859,    1874
    3061,    1866,    1849,    1869
    3062,    1858,    1866,    1869
    3063,    1857,    1861,    1876
    3064,    1843,    1863,    1844
    3065,    1852,    1862,    1870
    3066,    1862,    1863,    1870
    3067,    1849,    1850,    1869
    3068,    1868,    1858,    1871
    3069,    1856,    1855,    1871
    3070,    1853,    1867,    1854
    3071,    1858,    1860,    1871
    3072,    1841,    1874,    1842
** ... 37 like lines cut
*ELEMENT, TYPE=STRI3, ELSET=EB77
    3110,    1880,    1878,    1899
    3111,    1898,    1886,    1892
    3112,    1894,    1899,    1891
    3113,    1890,    1889,    1892
    3114,    1888,    1893,    1896
    3115,    1882,    1885,    1895
    3116,    1894,    1891,    1896
    3117,    1881,    1893,    1879
    3118,    1893,    1894,    1896
    3119,    1886,    1884,    1890
    3120,    1892,    1889,    1896
    3121,    1885,    1898,    1895
    3122,    1878,    1897,    1899
    3123,    1886,    1890,    1892
    3124,    1891,    1897,    1900
    3125,    1893,    1887,    1879
    3126,    1887,    1893,    1888
    3127,    1880,    1899,    1881
    3128,    1881,    1894,    1893
    3129,    1883,    1882,    1895
** ... 11 like lines cut
*ELEMENT, TYPE=STRI3, ELSET=EB78
    3141,    1919,    1906,    1912
    3142,    1916,    1903,    1918
    3143,    1905,    1914,    1915
    3144,    1911,    1901,    1916
    3145,    1914,    1907,    1920
    3146,    1908,    1909,    1917
    3147,    1909,    1910,    1917
    3148,    1910,    1906,    1919
    3149,    1901,    1903,    1916
    3150,    1902,    1907,    1914
    3151,    1908,    1917,    1920
    3152,    1915,    1914,    1913
    3153,    1905,    1902,    1914
    3154,    1915,    1913,    1919
    3155,    1904,    1905,    1915
    3156,    1921,    1912,    1911
    3157,    1918,    1921,    1916
    3158,    1903,    1904,    1918
    3159,    1917,    1913,    1920
    3160,    1917,    1910,    1919
** ... 8 like lines cut
*ELEMENT, TYPE=STRI3, ELSET=EB79
    3169,    1924,    1923,    1935
    3170,    1934,    1940,    1937
    3171,    1924,    1939,    1922
    3172,    1937,    1940,    1928
    3173,    1922,    1939,    1933
    3174,    1935,    1926,    1936
    3175,    1938,    1934,    1926
    3176,    1927,    1931,    1928
    3177,    1931,    1937,    1928
    3178,    1934,    1932,    1936
    3179,    1934,    1938,    1940
    3180,    1930,    1932,    1937
    3181,    1935,    1923,    1926
    3182,    1936,    1932,    1933
    3183,    1936,    1939,    1935
    3184,    1936,    1926,    1934
    3185,    1930,    1937,    1931
    3186,    1937,    1932,    1934
    3187,    1925,    1938,    1926
    3188,    1925,    1929,    1938
** ... 4 like lines cut
*ELEMENT, TYPE=STRI3, ELSET=EB80
    3193,    1958,    1962,    1960
    3194,    1951,    1956,    1958
    3195,    1943,    1961,    1953
    3196,    1946,    1964,    1949
    3197,    1943,    1953,    1941
    3198,    1961,    1963,    1953
    3199,    1942,    1966,    1959
    3200,    1954,    1962,    1955
    3201,    1957,    1961,    1959
    3202,    1963,    1954,    1953
    3203,    1960,    1965,    1948
    3204,    1942,    1959,    1944
    3205,    1956,    1951,    1950
    3206,    1951,    1958,    1952
    3207,    1947,    1965,    1959
    3208,    1955,    1962,    1958
    3209,    1964,    1960,    1949
    3210,    1958,    1956,    1955
    3211,    1945,    1966,    1942
    3212,    1959,    1965,    1957
** ... 14 like lines cut
*ELEMENT, TYPE=STRI3, ELSET=EB81
    3227,    2017,    2049,    2104
    3228,    2038,    2039,    1994
    3229,    1994,    1982,    2038
    3230,    1974,    1972,    2046
    3231,    1996,    2028,    1997
    3232,    2128,    2013,    2074
    3233,    1973,    1969,    1967
    3234,    1970,    1973,    1974
    3235,    2008,    2007,    2047
    3236,    1969,    1973,    1970
    3237,    2046,    2051,    1970
    3238,    2049,    2016,    2105
    3239,    1977,    2085,    1976
    3240,    2105,    2016,    1971
    3241,    2009,    2052,    2010
    3242,    2030,    2105,    2051
    3243,    2044,    2056,    2002
    3244,    1978,    2050,    1977
    3245,    2093,    1980,    2057
    3246,    2052,    2088,    2010
** ... 254 like lines cut
*ELEMENT, TYPE=STRI3, ELSET=EB82
    3501,    2176,    2161,    2184
    3502,    2135,    2183,    2144
    3503,    2155,    2206,    2218
    3504,    2179,    2188,    2224
    3505,    2142,    2201,    2192
    3506,    2168,    2181,    2207
    3507,    2154,    2153,    2172
    3508,    2152,    2188,    2179
    3509,    2204,    2208,    2176
    3510,    2180,    2221,    2134
    3511,    2205,    2203,    2175
    3512,    2214,    2170,    2215
    3513,    2162,    2209,    2207
    3514,    2203,    2223,    2175
    3515,    2207,    2181,    2172
    3516,    2192,    2214,    2141
    3517,    2194,    2190,    2164
    3518,    2196,    2175,    2215
    3519,    2143,    2201,    2142
    3520,    2177,    2173,    2183
** ... 149 like lines cut
*ELEMENT, TYPE=STRI3, ELSET=EB83
    3670,    2242,    2252,    2253
    3671,    2248,    2233,    2236
    3672,    2245,    2259,    2258
    3673,    2242,    2240,    2235
    3674,    2236,    2233,    2234
    3675,    2236,    2250,    2248
    3676,    2251,    2255,    2259
    3677,    2237,    2256,    2250
    3678,    2250,    2256,    2255
    3679,    2254,    2239,    2253
    3680,    2253,    2240,    2242
    3681,    2241,    2252,    2242
    3682,    2243,    2251,    2244
    3683,    2247,    2248,    2250
    3684,    2254,    2257,    2238
    3685,    2246,    2245,    2258
    3686,    2247,    2251,    2243
    3687,    2237,    2250,    2236
    3688,    2250,    2251,    2247
    3689,    2244,    2251,    2259
** ... 16 like lines cut
**
********************************** P R O P E R T I E S ************************
*SHELL SECTION, ELSET=EB107, SECTION INTEGRATION=SIMPSON, MATERIAL=Default-Steel
1.0000000000000000e+00
*SHELL SECTION, ELSET=EB55, SECTION INTEGRATION=SIMPSON, MATERIAL=Default-Steel
1.0000000000000000e+00
*SHELL SECTION, ELSET=EB56, SECTION INTEGRATION=SIMPSON, MATERIAL=Default-Steel
1.0000000000000000e+00
*SHELL SECTION, ELSET=EB57, SECTION INTEGRATION=SIMPSON, MATERIAL=Default-Steel
1.0000000000000000e+00
*SHELL SECTION, ELSET=EB58, SECTION INTEGRATION=SIMPSON, MATERIAL=Default-Steel
1.0000000000000000e+00
*SHELL SECTION, ELSET=EB59, SECTION INTEGRATION=SIMPSON, MATERIAL=Default-Steel
1.0000000000000000e+00
*SHELL SECTION, ELSET=EB60, SECTION INTEGRATION=SIMPSON, MATERIAL=Default-Steel
1.0000000000000000e+00
*SHELL SECTION, ELSET=EB61, SECTION INTEGRATION=SIMPSON, MATERIAL=Default-Steel
1.0000000000000000e+00
*SHELL SECTION, ELSET=EB62, SECTION INTEGRATION=SIMPSON, MATERIAL=Default-Steel
1.0000000000000000e+00
*SHELL SECTION, ELSET=EB63, SECTION INTEGRATION=SIMPSON, MATERIAL=Default-Steel
1.0000000000000000e+00
*SHELL SECTION, ELSET=EB64, SECTION INTEGRATION=SIMPSON, MATERIAL=Default-Steel
1.0000000000000000e+00
*SHELL SECTION, ELSET=EB65, SECTION INTEGRATION=SIMPSON, MATERIAL=Default-Steel
1.0000000000000000e+00
*SHELL SECTION, ELSET=EB66, SECTION INTEGRATION=SIMPSON, MATERIAL=Default-Steel
1.0000000000000000e+00
*SHELL SECTION, ELSET=EB67, SECTION INTEGRATION=SIMPSON, MATERIAL=Default-Steel
1.0000000000000000e+00
*SHELL SECTION, ELSET=EB68, SECTION INTEGRATION=SIMPSON, MATERIAL=Default-Steel
1.0000000000000000e+00
*SHELL SECTION, ELSET=EB69, SECTION INTEGRATION=SIMPSON, MATERIAL=Default-Steel
1.0000000000000000e+00
*SHELL SECTION, ELSET=EB70, SECTION INTEGRATION=SIMPSON, MATERIAL=Default-Steel
1.0000000000000000e+00
*SHELL SECTION, ELSET=EB71, SECTION INTEGRATION=SIMPSON, MATERIAL=Default-Steel
1.0000000000000000e+00
*SHELL SECTION, ELSET=EB72, SECTION INTEGRATION=SIMPSON, MATERIAL=Default-Steel
1.0000000000000000e+00
*SHELL SECTION, ELSET=EB73, SECTION INTEGRATION=SIMPSON, MATERIAL=Default-Steel
1.0000000000000000e+00
** ... 20 like lines cut
**
*END PART
**
**
**
********************************** E N D   P A R T S **********************************
**
**
********************************** A S S E M B L Y ************************************
**
*ASSEMBLY, NAME=ASSEMBLY1
**
*INSTANCE, NAME=Part-Default_1, PART=Part-Default
*END INSTANCE
**
*END ASSEMBLY
**
**
**
*MATERIAL, NAME = Default-Steel
*ELASTIC, TYPE=ISOTROPIC
2.0680000000000000e+05, 2.8999999999999998e-01
*DENSITY
6.9999999999999999e-06
*CONDUCTIVITY,TYPE=ISO
4.4999999999999998e-02
*SPECIFIC HEAT
5.0000000000000000e+02
**
**
************************************** H I S T O R Y *************************************
**
*PREPRINT
**
**************************************** S T E P 1 ***************************************
*STEP,INC=100,NAME=Default Set
**
*STATIC
1, 1, 1e-05, 1
**
**
**
**
*END STEP
