*HEADING
cubit(./example/results_test//finalMesh.inp): 07/28/2025: 16:36:05
version: 16.16.1
**
********************************** P A R T S **********************************
*PART, NAME=Part-Default
**
********************************** N O D E S **********************************
*NODE, NSET=ALLNODES
       1,    5.3000000000000000e+02,    1.9700000000000000e+02,    0.0000000000000000e+00
       2,    5.3288091499028531e+02,    1.8989346840048387e+02,    0.0000000000000000e+00
       3,    5.3584818299284029e+02,    1.8230408220374576e+02,    0.0000000000000000e+00
       4,    5.4065496961701217e+02,    1.7583158208468376e+02,    0.0000000000000000e+00
       5,    5.4792355944209942e+02,    1.7217720353586117e+02,    0.0000000000000000e+00
       6,    5.5592858490980609e+02,    1.7116975103214995e+02,    0.0000000000000000e+00
       7,    5.6273751219077735e+02,    1.7537889581804419e+02,    0.0000000000000000e+00
       8,    5.6671525102670546e+02,    1.8243047391911119e+02,    0.0000000000000000e+00
       9,    5.6995196929655253e+02,    1.8990775619667116e+02,    0.0000000000000000e+00
      10,    5.7327766585127370e+02,    1.9734932838866058e+02,    0.0000000000000000e+00
      11,    5.7601832314816636e+02,    2.0503402349469903e+02,    0.0000000000000000e+00
      12,    5.7903291813072690e+02,    2.1260198363503002e+02,    0.0000000000000000e+00
      13,    5.7924928283691384e+02,    2.2052357711859565e+02,    0.0000000000000000e+00
      14,    5.7381464292323551e+02,    2.2609720332481214e+02,    0.0000000000000000e+00
      15,    5.6587423402521574e+02,    2.2644179411093509e+02,    0.0000000000000000e+00
      16,    5.6030714158327714e+02,    2.2078818135481399e+02,    0.0000000000000000e+00
      17,    5.5452066784268959e+02,    2.1502075115510934e+02,    0.0000000000000000e+00
      18,    5.4789507282299223e+02,    2.1044614593915816e+02,    0.0000000000000000e+00
      19,    5.4037363359686879e+02,    2.0731748982461511e+02,    0.0000000000000000e+00
      20,    5.3283511853621508e+02,    2.0435659330639677e+02,    0.0000000000000000e+00
** ... 8499 like lines cut
**
********************************** E L E M E N T S ****************************
*ELEMENT, TYPE=STRI3, ELSET=C_phase1
       1,    2342,    3944,    3040
       2,    4193,    1596,    1597
       3,    2551,    3393,    5112
       4,    3784,    1878,    2437
       5,    2488,    2489,    2325
       6,    2370,    3202,    3528
       7,    2121,    4065,    3479
       8,    2560,    2366,    2559
       9,    1307,    3469,    1306
      10,    2932,    4672,    1612
      11,    3389,    2161,    2449
      12,    2293,    3826,    3231
      13,    4246,    5475,    5476
      14,    1481,    3454,    3459
      15,    1568,    1569,    2968
      16,    2489,    3429,    2026
      17,    3862,    2305,    3861
      18,    2306,    4250,    5286
      19,    2300,    4249,    2671
      20,    3715,    2255,    3713
** ... 9594 like lines cut
*ELEMENT, TYPE=STRI3, ELSET=C_phase2
    9615,    6609,    6614,    6606
    9616,    6598,    6623,    6621
    9617,    6632,    6618,    6592
    9618,    6626,    6609,    6617
    9619,    6615,    6595,    6596
    9620,    6618,    6611,    6616
    9621,    6629,    6597,    6621
    9622,    6614,    6608,    6620
    9623,    6613,    6623,    6625
    9624,    6613,    6601,    6602
    9625,    6613,    6625,    6601
    9626,    6613,    6603,    6624
    9627,    6610,    6613,    6624
    9628,    6617,    6609,    6589
    9629,    6610,    6624,    6619
    9630,    6616,    6617,    6590
    9631,    6588,    6589,    6609
    9632,    6607,    6588,    6609
    9633,    6596,    6629,    6615
    9634,    6592,    6618,    6591
** ... 48 like lines cut
*ELEMENT, TYPE=STRI3, ELSET=C_phase3
    9683,    6836,    6662,    6837
    9684,    6856,    6857,    6859
    9685,    6881,    6882,    6757
    9686,    6734,    6854,    6932
    9687,    6639,    6901,    6640
    9688,    6829,    6894,    6853
    9689,    6894,    6643,    6642
    9690,    6878,    7039,    7091
    9691,    6743,    6896,    6894
    9692,    6645,    6897,    6646
    9693,    6729,    7080,    7011
    9694,    6646,    6897,    6893
    9695,    6842,    7001,    7081
    9696,    6742,    6796,    6892
    9697,    6752,    6845,    6917
    9698,    6784,    6783,    6652
    9699,    6784,    6651,    6951
    9700,    6962,    7051,    6753
    9701,    6686,    6687,    6905
    9702,    6841,    6908,    6840
** ... 854 like lines cut
*ELEMENT, TYPE=STRI3, ELSET=C_phase4
   10557,    7309,    7338,    7339
   10558,    7330,    7328,    7339
   10559,    7339,    7308,    7309
   10560,    7336,    7334,    7325
   10561,    7338,    7310,    7311
   10562,    7333,    7332,    7337
   10563,    7315,    7340,    7337
   10564,    7337,    7332,    7314
   10565,    7317,    7342,    7340
   10566,    7318,    7342,    7317
   10567,    7336,    7332,    7334
   10568,    7329,    7335,    7341
   10569,    7321,    7335,    7320
   10570,    7313,    7332,    7336
   10571,    7332,    7333,    7323
   10572,    7314,    7332,    7313
   10573,    7312,    7313,    7331
   10574,    7326,    7331,    7336
   10575,    7327,    7330,    7331
   10576,    7340,    7316,    7317
** ... 27 like lines cut
*ELEMENT, TYPE=STRI3, ELSET=C_phase5
   10604,     394,     864,     634
   10605,      45,      44,     447
   10606,      60,     715,      61
   10607,     435,     714,     612
   10608,     666,     795,      12
   10609,     671,     247,     246
   10610,     494,    1062,     664
   10611,     245,     244,     668
   10612,     661,     666,     331
   10613,      67,     814,      68
   10614,     603,     941,     636
   10615,     603,     604,      15
   10616,      18,     608,      19
   10617,     631,     862,     632
   10618,     555,     552,     556
   10619,     209,     445,      21
   10620,     373,     550,     444
   10621,     816,      24,     550
   10622,     208,     444,     209
   10623,      23,     445,     550
** ... 2096 like lines cut
*ELEMENT, TYPE=STRI3, ELSET=C_phase6
   12720,    7735,    8183,    8178
   12721,    7347,    7973,    7346
   12722,    7739,    8387,    7544
   12723,    7345,    7975,    7694
   12724,    7735,    7973,    7972
   12725,    7735,    8177,    8183
   12726,    7741,    7660,    7980
   12727,    7353,    7763,    7991
   12728,    8122,    8123,    7681
   12729,    7632,    7989,    8153
   12730,    7357,    7896,    7900
   12731,    8403,    7568,    7762
   12732,    7358,    7898,    7896
   12733,    7357,    7358,    7896
   12734,    7711,    7712,    7621
   12735,    7360,    7361,    7997
   12736,    7679,    8115,    7780
   12737,    7362,    7363,    7895
   12738,    8213,    7571,    8214
   12739,    7701,    7785,    7368
** ... 2222 like lines cut
*ELEMENT, TYPE=STRI3, ELSET=C_phase7
   14962,    6530,    6525,    6515
   14963,    6528,    6532,    6529
   14964,    6526,    6532,    6531
   14965,    6529,    6517,    6518
   14966,    6519,    6520,    6528
   14967,    6520,    6521,    6528
   14968,    6524,    6525,    6527
   14969,    6522,    6527,    6531
   14970,    6523,    6527,    6522
   14971,    6516,    6530,    6515
   14972,    6531,    6521,    6522
   14973,    6524,    6527,    6523
   14974,    6526,    6527,    6530
   14975,    6519,    6529,    6518
   14976,    6531,    6532,    6528
   14977,    6528,    6529,    6519
   14978,    6517,    6532,    6516
   14979,    6526,    6530,    6532
   14980,    6530,    6527,    6525
   14981,    6531,    6527,    6526
   14982,    6531,    6528,    6521
   14983,    6532,    6530,    6516
   14984,    6529,    6532,    6517
*ELEMENT, TYPE=STRI3, ELSET=C_phase8
   14985,    6506,    6504,    6484
   14986,    6494,    6508,    6493
   14987,    6505,    6498,    6507
   14988,    6485,    6507,    6506
   14989,    6496,    6508,    6495
   14990,    6511,    6498,    6505
   14991,    6488,    6511,    6505
   14992,    6488,    6489,    6511
   14993,    6508,    6502,    6513
   14994,    6513,    6512,    6492
   14995,    6497,    6510,    6496
   14996,    6482,    6503,    6481
   14997,    6484,    6485,    6506
   14998,    6488,    6505,    6487
   14999,    6486,    6507,    6485
   15000,    6514,    6511,    6502
   15001,    6503,    6483,    6504
   15002,    6481,    6503,    6501
   15003,    6501,    6503,    6500
   15004,    6491,    6509,    6490
** ... 25 like lines cut
*ELEMENT, TYPE=STRI3, ELSET=C_phase9
   15030,    6472,    6475,    6474
   15031,    6478,    6476,    6473
   15032,    6478,    6479,    6461
   15033,    6478,    6463,    6477
   15034,    6462,    6463,    6478
   15035,    6465,    6466,    6476
   15036,    6460,    6479,    6475
   15037,    6460,    6475,    6472
   15038,    6472,    6474,    6471
   15039,    6470,    6474,    6469
   15040,    6471,    6474,    6470
   15041,    6466,    6467,    6476
   15042,    6480,    6475,    6473
   15043,    6468,    6475,    6480
   15044,    6468,    6469,    6474
   15045,    6475,    6479,    6473
   15046,    6475,    6468,    6474
   15047,    6465,    6477,    6464
   15048,    6473,    6476,    6480
   15049,    6464,    6477,    6463
** ... 7 like lines cut
*ELEMENT, TYPE=STRI3, ELSET=C_phase10
   15057,    7230,    7231,    7115
   15058,    7163,    7189,    7111
   15059,    7196,    7178,    7188
   15060,    7126,    7127,    7249
   15061,    7178,    7196,    7231
   15062,    7195,    7276,    7302
   15063,    7241,    7221,    7239
   15064,    7121,    7122,    7218
   15065,    7122,    7180,    7195
   15066,    7115,    7116,    7230
   15067,    7117,    7118,    7263
   15068,    7116,    7264,    7230
   15069,    7166,    7210,    7209
   15070,    7123,    7214,    7238
   15071,    7141,    7142,    7242
   15072,    7249,    7127,    7247
   15073,    7248,    7249,    7175
   15074,    7253,    7255,    7177
   15075,    7128,    7129,    7193
   15076,    7131,    7190,    7130
** ... 320 like lines cut
*ELEMENT, TYPE=STRI3, ELSET=C_phase11
   15397,    6442,    6450,    6441
   15398,    6455,    6452,    6448
   15399,    6447,    6430,    6455
   15400,    6432,    6456,    6452
   15401,    6441,    6438,    6440
   15402,    6434,    6435,    6449
   15403,    6451,    6449,    6435
   15404,    6437,    6459,    6436
   15405,    6440,    6438,    6439
   15406,    6438,    6450,    6437
   15407,    6453,    6457,    6449
   15408,    6450,    6442,    6451
   15409,    6457,    6434,    6449
   15410,    6452,    6431,    6432
   15411,    6454,    6445,    6458
   15412,    6454,    6458,    6448
   15413,    6443,    6444,    6453
   15414,    6444,    6454,    6453
   15415,    6443,    6449,    6442
   15416,    6456,    6433,    6457
** ... 20 like lines cut
*ELEMENT, TYPE=STRI3, ELSET=C_phase12
   15437,    6426,    6412,    6413
   15438,    6415,    6416,    6428
   15439,    6426,    6429,    6422
   15440,    6426,    6413,    6427
   15441,    6420,    6421,    6424
   15442,    6417,    6424,    6425
   15443,    6418,    6419,    6424
   15444,    6418,    6424,    6417
   15445,    6423,    6429,    6426
   15446,    6427,    6413,    6414
   15447,    6428,    6427,    6415
   15448,    6424,    6419,    6420
   15449,    6423,    6424,    6429
   15450,    6417,    6425,    6416
   15451,    6425,    6424,    6423
   15452,    6426,    6427,    6423
   15453,    6426,    6422,    6412
   15454,    6415,    6427,    6414
   15455,    6425,    6423,    6428
   15456,    6428,    6416,    6425
   15457,    6428,    6423,    6427
   15458,    6429,    6424,    6421
   15459,    6421,    6422,    6429
*ELEMENT, TYPE=STRI3, ELSET=C_phase13
   15460,    6403,    6401,    6405
   15461,    6404,    6391,    6411
   15462,    6405,    6401,    6387
   15463,    6406,    6397,    6410
   15464,    6398,    6399,    6410
   15465,    6409,    6404,    6411
   15466,    6393,    6394,    6408
   15467,    6407,    6406,    6402
   15468,    6395,    6396,    6407
   15469,    6391,    6403,    6390
   15470,    6405,    6388,    6389
   15471,    6400,    6404,    6399
   15472,    6389,    6390,    6405
   15473,    6407,    6408,    6394
   15474,    6406,    6410,    6402
   15475,    6400,    6403,    6404
   15476,    6400,    6401,    6403
   15477,    6404,    6403,    6391
   15478,    6411,    6392,    6408
   15479,    6405,    6390,    6403
** ... 13 like lines cut
*ELEMENT, TYPE=STRI3, ELSET=C_phase14
   15493,    6375,    6386,    6381
   15494,    6368,    6369,    6379
   15495,    6386,    6364,    6378
   15496,    6363,    6364,    6386
   15497,    6376,    6384,    6382
   15498,    6380,    6379,    6377
   15499,    6379,    6369,    6370
   15500,    6367,    6368,    6380
   15501,    6366,    6367,    6384
   15502,    6364,    6365,    6378
   15503,    6376,    6382,    6374
   15504,    6382,    6384,    6377
   15505,    6376,    6374,    6381
   15506,    6383,    6365,    6366
   15507,    6385,    6371,    6372
   15508,    6385,    6373,    6382
   15509,    6376,    6378,    6383
   15510,    6362,    6386,    6375
   15511,    6371,    6379,    6370
   15512,    6377,    6379,    6385
** ... 14 like lines cut
**
********************************** P R O P E R T I E S ************************
*SHELL SECTION, ELSET=C_phase1, SECTION INTEGRATION=SIMPSON, MATERIAL=Default-Steel
1.0000000000000000e+00
*SHELL SECTION, ELSET=C_phase2, SECTION INTEGRATION=SIMPSON, MATERIAL=Default-Steel
1.0000000000000000e+00
*SHELL SECTION, ELSET=C_phase3, SECTION INTEGRATION=SIMPSON, MATERIAL=Default-Steel
1.0000000000000000e+00
*SHELL SECTION, ELSET=C_phase4, SECTION INTEGRATION=SIMPSON, MATERIAL=Default-Steel
1.0000000000000000e+00
*SHELL SECTION, ELSET=C_phase5, SECTION INTEGRATION=SIMPSON, MATERIAL=Default-Steel
1.0000000000000000e+00
*SHELL SECTION, ELSET=C_phase6, SECTION INTEGRATION=SIMPSON, MATERIAL=Default-Steel
1.0000000000000000e+00
*SHELL SECTION, ELSET=C_phase7, SECTION INTEGRATION=SIMPSON, MATERIAL=Default-Steel
1.0000000000000000e+00
*SHELL SECTION, ELSET=C_phase8, SECTION INTEGRATION=SIMPSON, MATERIAL=Default-Steel
1.0000000000000000e+00
*SHELL SECTION, ELSET=C_phase9, SECTION INTEGRATION=SIMPSON, MATERIAL=Default-Steel
1.0000000000000000e+00
*SHELL SECTION, ELSET=C_phase10, SECTION INTEGRATION=SIMPSON, MATERIAL=Default-Steel
1.0000000000000000e+00
*SHELL SECTION, ELSET=C_phase11, SECTION INTEGRATION=SIMPSON, MATERIAL=Default-Steel
1.0000000000000000e+00
*SHELL SECTION, ELSET=C_phase12, SECTION INTEGRATION=SIMPSON, MATERIAL=Default-Steel
1.0000000000000000e+00
*SHELL SECTION, ELSET=C_phase13, SECTION INTEGRATION=SIMPSON, MATERIAL=Default-Steel
1.0000000000000000e+00
*SHELL SECTION, ELSET=C_phase14, SECTION INTEGRATION=SIMPSON, MATERIAL=Default-Steel
1.0000000000000000e+00
**
*END PART
**
**
**
********************************** E N D   P A R T S **********************************
**
**
********************************** A S S E M B L Y ************************************
**
*ASSEMBLY, NAME=ASSEMBLY1
**
*INSTANCE, NAME=Part-Default_1, PART=Part-Default
*END INSTANCE
**
*END ASSEMBLY
**
**
**
*MATERIAL, NAME = Default-Steel
*ELASTIC, TYPE=ISOTROPIC
2.0680000000000000e+05, 2.8999999999999998e-01
*DENSITY
6.9999999999999999e-06
*CONDUCTIVITY,TYPE=ISO
4.4999999999999998e-02
*SPECIFIC HEAT
5.0000000000000000e+02
**
**
************************************** H I S T O R Y *************************************
**
*PREPRINT
**
**************************************** S T E P 1 ***************************************
*STEP,INC=100,NAME=Default Set
**
*STATIC
1, 1, 1e-05, 1
**
**
**
**
*END STEP
