*HEADING
cubit(./example/results_test//finalMesh.inp): 07/28/2025: 16:18:21
version: 16.16.1
**
********************************** P A R T S **********************************
*PART, NAME=Part-Default
**
********************************** N O D E S **********************************
*NODE, NSET=ALLNODES
       1,    2.8100000000000000e+02,    1.0000000000000000e+00,    0.0000000000000000e+00
       2,    3.5000000000000000e+02,    4.5100000000000000e+02,    0.0000000000000000e+00
       3,    2.7899952813664493e+02,    8.5004407062732490e+00,    0.0000000000000000e+00
       4,    2.7415921017452132e+02,    1.4681114352871303e+01,    0.0000000000000000e+00
       5,    2.7241152599619437e+02,    2.2324509600304360e+01,    0.0000000000000000e+00
       6,    2.7329829520726383e+02,    3.0222538349978024e+01,    0.0000000000000000e+00
       7,    2.7316316037844240e+02,    3.8125819069913042e+01,    0.0000000000000000e+00
       8,    2.6983433422657390e+02,    4.5331235177436433e+01,    0.0000000000000000e+00
       9,    2.6665828935862231e+02,    5.2596749529581004e+01,    0.0000000000000000e+00
      10,    2.6335304643506515e+02,    5.9754527850809033e+01,    0.0000000000000000e+00
      11,    2.5905564991313622e+02,    6.5936007281531772e+01,    0.0000000000000000e+00
      12,    2.6452515544149583e+02,    7.1007965358330964e+01,    0.0000000000000000e+00
      13,    2.7214922352174568e+02,    7.3077466368263572e+01,    0.0000000000000000e+00
      14,    2.7878231242274546e+02,    7.7288179758242080e+01,    0.0000000000000000e+00
      15,    2.8209033306271010e+02,    8.4388377801868444e+01,    0.0000000000000000e+00
      16,    2.8316651995965981e+02,    9.2246239325630100e+01,    0.0000000000000000e+00
      17,    2.8604007259213358e+02,    9.9535100834180710e+01,    0.0000000000000000e+00
      18,    2.9008199236788425e+02,    1.0626447787627723e+02,    0.0000000000000000e+00
      19,    2.9004905466347452e+02,    1.1328154932328640e+02,    0.0000000000000000e+00
      20,    2.9128083675704721e+02,    1.2111134510261901e+02,    0.0000000000000000e+00
** ... 8857 like lines cut
**
********************************** E L E M E N T S ****************************
*ELEMENT, TYPE=STRI3, ELSET=C_phase1
       1,    7221,    7209,    6459
       2,    7852,    8374,    6869
       3,    7231,    7028,    5875
       4,    5989,    6712,    5988
       5,    5914,    7402,    7207
       6,    7058,    8028,    7022
       7,    6327,    7011,    7982
       8,    6100,    6710,    6099
       9,    6572,    7520,    8221
      10,    6007,    6008,    7190
      11,    6865,    6223,    6224
      12,    7566,    6383,    8154
      13,    5864,    6527,    5863
      14,    6527,    7408,    5862
      15,    6137,    6839,    6138
      16,    5840,    7397,    7398
      17,    7179,    6053,    7178
      18,    6797,    7068,    6591
      19,    6327,    7018,    7988
      20,    7228,    6463,    7105
** ... 4966 like lines cut
*ELEMENT, TYPE=STRI3, ELSET=C_phase2
    4987,    3670,    3669,    4339
    4988,    4224,    4062,    4489
    4989,    4600,    4105,    4602
    4990,    4628,    3611,    4625
    4991,    4380,    3584,    4379
    4992,    4140,    3842,    4143
    4993,    3942,    5058,    5350
    4994,    4637,    3709,    4639
    4995,    4016,    4605,    4409
    4996,    4138,    3601,    4050
    4997,    4137,    3770,    3771
    4998,    4530,    4411,    3904
    4999,    3897,    4191,    4136
    5000,    3985,    4507,    4510
    5001,    5165,    3892,    4788
    5002,    4020,    4120,    4081
    5003,    4462,    3971,    4061
    5004,    4614,    5153,    4399
    5005,    3754,    4529,    4134
    5006,    5046,    5318,    4418
** ... 3488 like lines cut
*ELEMENT, TYPE=STRI3, ELSET=C_phase3
    8495,    8650,    8654,    8641
    8496,    8648,    8651,    8656
    8497,    8639,    8640,    8638
    8498,    8637,    8638,    8654
    8499,    8655,    8642,    8643
    8500,    8638,    8640,    8654
    8501,    8653,    8646,    8656
    8502,    8652,    8644,    8653
    8503,    8651,    8652,    8656
    8504,    8644,    8652,    8643
    8505,    8650,    8651,    8649
    8506,    8650,    8636,    8637
    8507,    8649,    8636,    8650
    8508,    8657,    8641,    8642
    8509,    8657,    8655,    8651
    8510,    8651,    8648,    8649
    8511,    8644,    8645,    8653
    8512,    8651,    8655,    8652
    8513,    8646,    8647,    8656
    8514,    8646,    8653,    8645
** ... 8 like lines cut
*ELEMENT, TYPE=STRI3, ELSET=C_phase4
    8523,    3545,    3538,    3537
    8524,    3551,    3529,    3549
    8525,    3528,    3529,    3551
    8526,    3529,    3530,    3549
    8527,    3539,    3545,    3546
    8528,    3532,    3543,    3548
    8529,    3530,    3546,    3549
    8530,    3543,    3541,    3548
    8531,    3547,    3534,    3548
    8532,    3536,    3535,    3542
    8533,    3535,    3547,    3542
    8534,    3542,    3545,    3537
    8535,    3527,    3539,    3546
    8536,    3534,    3533,    3548
    8537,    3543,    3544,    3541
    8538,    3547,    3548,    3550
    8539,    3537,    3536,    3542
    8540,    3542,    3540,    3545
    8541,    3526,    3544,    3531
    8542,    3531,    3543,    3532
** ... 18 like lines cut
*ELEMENT, TYPE=STRI3, ELSET=C_phase5
    8561,    3218,    3213,    3186
    8562,    3210,    3217,    3216
    8563,    3186,    3213,    3187
    8564,    3188,    3214,    3212
    8565,    3218,    3184,    3199
    8566,    3194,    3193,    3210
    8567,    3192,    3217,    3210
    8568,    3190,    3189,    3229
    8569,    3221,    3222,    3210
    8570,    3224,    3225,    3211
    8571,    3210,    3222,    3194
    8572,    3205,    3206,    3226
    8573,    3207,    3198,    3211
    8574,    3201,    3214,    3213
    8575,    3200,    3213,    3218
    8576,    3189,    3223,    3216
    8577,    3187,    3214,    3188
    8578,    3212,    3223,    3188
    8579,    3208,    3219,    3230
    8580,    3226,    3220,    3205
** ... 48 like lines cut
*ELEMENT, TYPE=STRI3, ELSET=C_phase6
    8629,    3007,    3081,    3103
    8630,    3000,    3143,    3001
    8631,    3078,    3151,    3117
    8632,    3029,    3028,    3030
    8633,    3134,    3135,    3085
    8634,    3140,    3142,    3069
    8635,    2971,    2973,    3041
    8636,    2976,    3102,    2975
    8637,    2975,    3102,    3136
    8638,    3041,    2973,    3129
    8639,    3094,    3092,    3157
    8640,    3141,    3081,    3005
    8641,    2992,    2990,    2972
    8642,    3137,    3156,    3073
    8643,    3091,    2981,    3100
    8644,    3019,    3016,    3093
    8645,    3100,    2981,    2982
    8646,    3034,    3089,    3099
    8647,    2986,    3109,    3164
    8648,    2984,    2985,    3113
** ... 316 like lines cut
*ELEMENT, TYPE=STRI3, ELSET=C_phase7
    8965,    8673,    8675,    8662
    8966,    8675,    8673,    8674
    8967,    8672,    8673,    8663
    8968,    8664,    8671,    8672
    8969,    8671,    8669,    8672
    8970,    8666,    8670,    8671
    8971,    8659,    8670,    8666
    8972,    8658,    8660,    8674
    8973,    8673,    8662,    8663
    8974,    8663,    8664,    8672
    8975,    8670,    8669,    8671
    8976,    8665,    8666,    8671
    8977,    8665,    8671,    8664
    8978,    8672,    8668,    8673
    8979,    8668,    8672,    8669
    8980,    8660,    8661,    8674
    8981,    8667,    8673,    8668
    8982,    8667,    8658,    8674
    8983,    8667,    8674,    8673
    8984,    8675,    8661,    8662
    8985,    8661,    8675,    8674
*ELEMENT, TYPE=STRI3, ELSET=C_phase8
    8986,    8868,    8875,    8867
    8987,    8873,    8871,    8876
    8988,    8860,    8877,    8876
    8989,    8876,    8859,    8860
    8990,    8863,    8872,    8874
    8991,    8864,    8872,    8863
    8992,    8863,    8873,    8862
    8993,    8865,    8875,    8872
    8994,    8866,    8875,    8865
    8995,    8874,    8872,    8869
    8996,    8870,    8873,    8874
    8997,    8865,    8872,    8864
    8998,    8872,    8868,    8869
    8999,    8871,    8873,    8870
    9000,    8861,    8877,    8860
    9001,    8870,    8874,    8869
    9002,    8874,    8873,    8863
    9003,    8867,    8875,    8866
    9004,    8872,    8875,    8868
    9005,    8876,    8877,    8873
    9006,    8876,    8871,    8859
    9007,    8862,    8877,    8861
    9008,    8862,    8873,    8877
*ELEMENT, TYPE=STRI3, ELSET=C_phase9
    9009,    2969,    2970,    2966
    9010,    2969,    2966,    2955
    9011,    2966,    2954,    2955
    9012,    2960,    2961,    2967
    9013,    2960,    2967,    2968
    9014,    2959,    2960,    2968
    9015,    2970,    2962,    2963
    9016,    2959,    2957,    2958
    9017,    2965,    2953,    2966
    9018,    2964,    2952,    2965
    9019,    2952,    2953,    2965
    9020,    2963,    2964,    2965
    9021,    2953,    2954,    2966
    9022,    2963,    2965,    2966
    9023,    2967,    2969,    2956
    9024,    2961,    2962,    2967
    9025,    2956,    2957,    2968
    9026,    2957,    2959,    2968
    9027,    2967,    2956,    2968
    9028,    2967,    2962,    2970
    9029,    2969,    2955,    2956
    9030,    2969,    2967,    2970
    9031,    2970,    2963,    2966
*ELEMENT, TYPE=STRI3, ELSET=C_phase10
    9032,    3333,    3345,    3332
    9033,    3314,    3410,    3411
    9034,    3409,    3450,    3251
    9035,    3316,    3250,    3315
    9036,    3321,    3384,    3320
    9037,    3320,    3384,    3414
    9038,    3235,    3384,    3383
    9039,    3237,    3236,    3322
    9040,    3323,    3324,    3238
    9041,    3420,    3371,    3493
    9042,    3397,    3281,    3488
    9043,    3450,    3448,    3251
    9044,    3242,    3407,    3466
    9045,    3424,    3363,    3423
    9046,    3313,    3411,    3245
    9047,    3409,    3316,    3412
    9048,    3313,    3314,    3411
    9049,    3247,    3411,    3248
    9050,    3250,    3316,    3409
    9051,    3354,    3436,    3438
** ... 452 like lines cut
*ELEMENT, TYPE=STRI3, ELSET=C_phase11
    9504,    5618,    5634,    5654
    9505,    5610,    5641,    5656
    9506,    5583,    5584,    5640
    9507,    5608,    5623,    5655
    9508,    5576,    5577,    5632
    9509,    5610,    5635,    5634
    9510,    5599,    5598,    5626
    9511,    5584,    5585,    5616
    9512,    5635,    5610,    5643
    9513,    5597,    5651,    5625
    9514,    5607,    5658,    5629
    9515,    5576,    5620,    5574
    9516,    5579,    5631,    5578
    9517,    5608,    5642,    5633
    9518,    5610,    5656,    5643
    9519,    5627,    5611,    5644
    9520,    5628,    5607,    5629
    9521,    5593,    5592,    5628
    9522,    5592,    5627,    5628
    9523,    5594,    5617,    5595
** ... 124 like lines cut
*ELEMENT, TYPE=STRI3, ELSET=C_phase12
    9648,    2059,    2057,    2050
    9649,    2041,    2032,    2054
    9650,    2055,    2035,    2036
    9651,    2043,    2042,    2054
    9652,    2054,    2032,    2034
    9653,    2050,    2057,    2055
    9654,    2053,    2061,    2048
    9655,    2060,    2051,    2063
    9656,    2062,    2056,    2051
    9657,    2038,    2058,    2037
    9658,    2036,    2064,    2055
    9659,    2048,    2046,    2053
    9660,    2040,    2052,    2039
    9661,    2049,    2040,    2033
    9662,    2047,    2046,    2048
    9663,    2052,    2060,    2039
    9664,    2045,    2044,    2062
    9665,    2054,    2057,    2059
    9666,    2038,    2063,    2058
    9667,    2048,    2061,    2049
** ... 26 like lines cut
*ELEMENT, TYPE=STRI3, ELSET=C_phase13
    9694,    5699,    5735,    5698
    9695,    5700,    5734,    5735
    9696,    5712,    5665,    5724
    9697,    5696,    5697,    5752
    9698,    5722,    5717,    5669
    9699,    5695,    5716,    5717
    9700,    5706,    5737,    5739
    9701,    5737,    5690,    5739
    9702,    5686,    5721,    5685
    9703,    5731,    5732,    5676
    9704,    5704,    5759,    5711
    9705,    5709,    5746,    5727
    9706,    5709,    5747,    5719
    9707,    5691,    5692,    5730
    9708,    5678,    5679,    5719
    9709,    5721,    5710,    5720
    9710,    5719,    5681,    5746
    9711,    5748,    5710,    5745
    9712,    5721,    5720,    5685
    9713,    5721,    5687,    5726
** ... 142 like lines cut
*ELEMENT, TYPE=STRI3, ELSET=C_phase14
    9856,    5787,    5802,    5786
    9857,    5795,    5802,    5787
    9858,    5796,    5798,    5769
    9859,    5770,    5799,    5796
    9860,    5771,    5799,    5770
    9861,    5788,    5816,    5797
    9862,    5773,    5811,    5794
    9863,    5811,    5809,    5812
    9864,    5809,    5810,    5790
    9865,    5775,    5810,    5809
    9866,    5803,    5777,    5778
    9867,    5772,    5814,    5771
    9868,    5806,    5804,    5789
    9869,    5779,    5780,    5806
    9870,    5783,    5807,    5782
    9871,    5798,    5815,    5768
    9872,    5782,    5804,    5781
    9873,    5792,    5815,    5798
    9874,    5784,    5800,    5801
    9875,    5769,    5798,    5768
** ... 73 like lines cut
*ELEMENT, TYPE=STRI3, ELSET=C_phase15
    9949,    2019,    2002,    2022
    9950,    1987,    2028,    2027
    9951,    1988,    2024,    1996
    9952,    2017,    2018,    1991
    9953,    1993,    1994,    2020
    9954,    2026,    1999,    1998
    9955,    2019,    2030,    2003
    9956,    2025,    2026,    1998
    9957,    1996,    2024,    1997
    9958,    1979,    2021,    1981
    9959,    2006,    2005,    2021
    9960,    1986,    1985,    2023
    9961,    2022,    2001,    2000
    9962,    2021,    2018,    2006
    9963,    2015,    2020,    2009
    9964,    1988,    1996,    1980
    9965,    2030,    2016,    2003
    9966,    2013,    2029,    2016
    9967,    2017,    2008,    2007
    9968,    2015,    2009,    2017
** ... 50 like lines cut
*ELEMENT, TYPE=STRI3, ELSET=C_phase16
   10019,    2407,    2390,    2273
   10020,    2129,    2399,    2131
   10021,    2291,    2449,    2406
   10022,    2158,    2383,    2157
   10023,    2167,    2461,    2166
   10024,    2297,    2471,    2469
   10025,    2277,    2302,    2471
   10026,    2302,    2342,    2481
   10027,    2255,    2580,    2256
   10028,    2480,    2137,    2136
   10029,    2342,    2302,    2277
   10030,    2403,    2557,    2132
   10031,    2393,    2403,    2399
   10032,    2399,    2403,    2131
   10033,    2143,    2499,    2142
   10034,    2388,    2275,    2401
   10035,    2398,    2401,    2144
   10036,    2144,    2401,    2400
   10037,    2558,    2570,    2394
   10038,    2451,    2449,    2291
** ... 822 like lines cut
*ELEMENT, TYPE=STRI3, ELSET=C_phase17
   10861,    5560,    5556,    5567
   10862,    5558,    5572,    5562
   10863,    5548,    5563,    5547
   10864,    5543,    5565,    5542
   10865,    5552,    5570,    5551
   10866,    5543,    5566,    5565
   10867,    5544,    5566,    5543
   10868,    5542,    5565,    5573
   10869,    5569,    5570,    5557
   10870,    5546,    5547,    5564
   10871,    5562,    5572,    5540
   10872,    5550,    5569,    5563
   10873,    5559,    5570,    5561
   10874,    5561,    5570,    5552
   10875,    5539,    5567,    5538
   10876,    5555,    5560,    5554
   10877,    5554,    5560,    5571
   10878,    5545,    5568,    5566
   10879,    5563,    5569,    5564
   10880,    5561,    5571,    5562
** ... 31 like lines cut
*ELEMENT, TYPE=STRI3, ELSET=C_phase18
   10912,    2124,    2099,    2113
   10913,    2110,    2094,    2120
   10914,    2065,    2067,    2106
   10915,    2110,    2070,    2113
   10916,    2109,    2112,    2093
   10917,    2123,    2074,    2108
   10918,    2104,    2107,    2095
   10919,    2071,    2072,    2124
   10920,    2082,    2098,    2083
   10921,    2118,    2096,    2121
   10922,    2097,    2122,    2106
   10923,    2096,    2116,    2097
   10924,    2122,    2119,    2078
   10925,    2070,    2071,    2113
   10926,    2077,    2122,    2078
   10927,    2116,    2080,    2079
   10928,    2092,    2091,    2101
   10929,    2114,    2098,    2115
   10930,    2082,    2109,    2098
   10931,    2088,    2103,    2089
** ... 78 like lines cut
*ELEMENT, TYPE=STRI3, ELSET=C_phase19
   11010,    8626,    8623,    8604
   11011,    8622,    8601,    8625
   11012,    8579,    8611,    8578
   11013,    8578,    8611,    8633
   11014,    8587,    8588,    8610
   11015,    8582,    8632,    8630
   11016,    8621,    8635,    8610
   11017,    8618,    8585,    8619
   11018,    8590,    8610,    8589
   11019,    8615,    8616,    8592
   11020,    8610,    8588,    8589
   11021,    8603,    8621,    8616
   11022,    8590,    8620,    8610
   11023,    8606,    8615,    8634
   11024,    8602,    8627,    8609
   11025,    8612,    8628,    8602
   11026,    8607,    8608,    8594
   11027,    8595,    8607,    8594
   11028,    8608,    8593,    8594
   11029,    8613,    8629,    8598
** ... 71 like lines cut
*ELEMENT, TYPE=STRI3, ELSET=C_phase20
   11101,    1841,    1870,    1863
   11102,    1850,    1851,    1861
   11103,    1865,    1868,    1849
   11104,    1837,    1838,    1869
   11105,    1835,    1862,    1855
   11106,    1868,    1871,    1863
   11107,    1868,    1848,    1849
   11108,    1844,    1845,    1867
   11109,    1845,    1866,    1867
   11110,    1870,    1841,    1866
   11111,    1865,    1838,    1839
   11112,    1847,    1863,    1864
   11113,    1841,    1842,    1866
   11114,    1849,    1850,    1862
   11115,    1838,    1865,    1869
   11116,    1860,    1853,    1858
   11117,    1853,    1860,    1836
   11118,    1854,    1858,    1853
   11119,    1856,    1855,    1850
   11120,    1851,    1860,    1861
** ... 27 like lines cut
*ELEMENT, TYPE=STRI3, ELSET=C_phase21
   11148,    1746,    1805,    1802
   11149,    1745,    1802,    1804
   11150,    1751,    1750,    1803
   11151,    1752,    1751,    1803
   11152,    1802,    1754,    1804
   11153,    1813,    1833,    1805
   11154,    1744,    1788,    1795
   11155,    1753,    1752,    1803
   11156,    1745,    1746,    1802
   11157,    1773,    1800,    1774
   11158,    1768,    1831,    1769
   11159,    1817,    1770,    1822
   11160,    1818,    1819,    1757
   11161,    1820,    1791,    1821
   11162,    1760,    1826,    1829
   11163,    1830,    1761,    1829
   11164,    1762,    1801,    1763
   11165,    1759,    1824,    1825
   11166,    1763,    1801,    1764
   11167,    1761,    1830,    1762
** ... 116 like lines cut
*ELEMENT, TYPE=STRI3, ELSET=C_phase22
   11284,    5511,    5472,    5473
   11285,    5514,    5479,    5518
   11286,    5510,    5471,    5511
   11287,    5500,    5510,    5506
   11288,    5516,    5496,    5521
   11289,    5517,    5527,    5503
   11290,    5476,    5477,    5517
   11291,    5493,    5494,    5515
   11292,    5502,    5524,    5519
   11293,    5489,    5490,    5534
   11294,    5490,    5491,    5532
   11295,    5505,    5488,    5534
   11296,    5508,    5509,    5486
   11297,    5505,    5508,    5488
   11298,    5482,    5526,    5519
   11299,    5488,    5508,    5487
   11300,    5519,    5524,    5481
   11301,    5534,    5532,    5505
   11302,    5504,    5491,    5525
   11303,    5503,    5527,    5531
** ... 82 like lines cut
*ELEMENT, TYPE=STRI3, ELSET=C_phase23
   11386,    1944,    1961,    1962
   11387,    1912,    1914,    1932
   11388,    1969,    1970,    1975
   11389,    1970,    1971,    1916
   11390,    1969,    1919,    1974
   11391,    1919,    1920,    1974
   11392,    1955,    1929,    1930
   11393,    1917,    1970,    1916
   11394,    1921,    1973,    1968
   11395,    1933,    1914,    1972
   11396,    1966,    1939,    1973
   11397,    1959,    1927,    1977
   11398,    1950,    1958,    1951
   11399,    1915,    1971,    1972
   11400,    1933,    1932,    1914
   11401,    1923,    1940,    1922
   11402,    1914,    1915,    1972
   11403,    1922,    1940,    1966
   11404,    1970,    1917,    1975
   11405,    1937,    1936,    1969
** ... 67 like lines cut
*ELEMENT, TYPE=STRI3, ELSET=C_phase24
   11473,    1878,    1882,    1883
   11474,    1885,    1887,    1883
   11475,    1872,    1874,    1886
   11476,    1877,    1887,    1876
   11477,    1886,    1875,    1884
   11478,    1885,    1880,    1884
   11479,    1873,    1882,    1878
   11480,    1879,    1872,    1886
   11481,    1882,    1881,    1883
   11482,    1877,    1878,    1883
   11483,    1881,    1880,    1885
   11484,    1875,    1876,    1884
   11485,    1884,    1880,    1879
   11486,    1883,    1881,    1885
   11487,    1887,    1884,    1876
   11488,    1874,    1875,    1886
   11489,    1886,    1884,    1879
   11490,    1885,    1884,    1887
   11491,    1887,    1877,    1883
*ELEMENT, TYPE=STRI3, ELSET=C_phase25
   11492,    2647,    2763,    2765
   11493,    2642,    2772,    2632
   11494,    2743,    2802,    2818
   11495,    2653,    2791,    2809
   11496,    2750,    2901,    2634
   11497,    2743,    2887,    2802
   11498,    2777,    2911,    2935
   11499,    2807,    2649,    2651
   11500,    2806,    2714,    2805
   11501,    2783,    2674,    2875
   11502,    2729,    2925,    2796
   11503,    2786,    2780,    2787
   11504,    2812,    2878,    2814
   11505,    2810,    2791,    2886
   11506,    2797,    2620,    2862
   11507,    2678,    2770,    2679
   11508,    2771,    2779,    2690
   11509,    2771,    2690,    2689
   11510,    2629,    2628,    2753
   11511,    2770,    2722,    2758
** ... 563 like lines cut
*ELEMENT, TYPE=STRI3, ELSET=C_phase26
   12075,      29,     581,     307
   12076,     423,     491,     849
   12077,     310,     493,     229
   12078,      79,     309,      90
   12079,       4,       3,     308
   12080,     287,     393,     456
   12081,       1,      80,       3
   12082,     391,      13,      12
   12083,      90,     309,     490
   12084,     644,      51,      50
   12085,     235,     700,     596
   12086,      62,     452,     451
   12087,      10,     480,     477
   12088,     426,     302,     799
   12089,     844,     480,       9
   12090,     425,     424,     208
   12091,     404,     580,     786
   12092,     206,     545,     636
   12093,      16,      15,     393
   12094,     845,     408,     401
** ... 1784 like lines cut
*ELEMENT, TYPE=STRI3, ELSET=C_phase27
   13879,    1385,    1208,    1323
   13880,    1455,    1067,    1456
   13881,    1579,    1476,    1319
   13882,    1290,    1049,    1050
   13883,    1491,    1489,    1043
   13884,     994,    1262,     992
   13885,    1188,    1380,    1378
   13886,    1380,    1254,    1381
   13887,     997,     998,    1263
   13888,    1255,    1262,     994
   13889,     996,     997,    1381
   13890,    1631,    1469,    1666
   13891,    1469,    1727,    1184
   13892,    1365,    1727,    1624
   13893,    1022,    1261,    1021
   13894,    1260,    1374,    1369
   13895,    1003,    1004,    1377
   13896,    1472,    1377,    1004
   13897,    1473,    1006,    1373
   13898,    1373,    1007,    1375
** ... 1316 like lines cut
*ELEMENT, TYPE=STRI3, ELSET=C_phase28
   15215,    8705,    8676,    8751
   15216,    8679,    8777,    8776
   15217,    8705,    8793,    8706
   15218,    8796,    8783,    8721
   15219,    8751,    8776,    8794
   15220,    8795,    8709,    8749
   15221,    8776,    8678,    8679
   15222,    8707,    8749,    8708
   15223,    8805,    8711,    8806
   15224,    8681,    8778,    8777
   15225,    8756,    8787,    8687
   15226,    8815,    8683,    8684
   15227,    8701,    8773,    8700
   15228,    8691,    8767,    8766
   15229,    8825,    8848,    8768
   15230,    8769,    8772,    8699
   15231,    8697,    8811,    8695
   15232,    8695,    8811,    8750
   15233,    8774,    8771,    8693
   15234,    8741,    8811,    8772
** ... 295 like lines cut
*ELEMENT, TYPE=STRI3, ELSET=C_phase29
   15530,    1896,    1903,    1909
   15531,    1895,    1909,    1911
   15532,    1888,    1908,    1900
   15533,    1889,    1900,    1906
   15534,    1905,    1901,    1903
   15535,    1893,    1904,    1892
   15536,    1894,    1895,    1911
   15537,    1897,    1903,    1896
   15538,    1901,    1910,    1903
   15539,    1907,    1910,    1890
   15540,    1906,    1900,    1908
   15541,    1905,    1899,    1906
   15542,    1907,    1891,    1904
   15543,    1893,    1894,    1904
   15544,    1910,    1908,    1890
   15545,    1897,    1898,    1903
   15546,    1903,    1902,    1909
   15547,    1904,    1891,    1892
   15548,    1902,    1907,    1904
   15549,    1905,    1898,    1899
** ... 13 like lines cut
*ELEMENT, TYPE=STRI3, ELSET=C_phase30
   15563,    8560,    8571,    8569
   15564,    8575,    8573,    8561
   15565,    8562,    8563,    8572
   15566,    8567,    8576,    8566
   15567,    8564,    8574,    8572
   15568,    8571,    8573,    8570
   15569,    8560,    8573,    8571
   15570,    8571,    8576,    8568
   15571,    8565,    8574,    8564
   15572,    8566,    8576,    8574
   15573,    8568,    8576,    8567
   15574,    8568,    8569,    8571
   15575,    8561,    8562,    8575
   15576,    8572,    8563,    8564
   15577,    8561,    8573,    8560
   15578,    8572,    8570,    8575
   15579,    8572,    8574,    8570
   15580,    8574,    8565,    8566
   15581,    8575,    8562,    8572
   15582,    8575,    8570,    8573
   15583,    8576,    8571,    8570
   15584,    8570,    8574,    8576
**
********************************** P R O P E R T I E S ************************
*SHELL SECTION, ELSET=C_phase1, SECTION INTEGRATION=SIMPSON, MATERIAL=Default-Steel
1.0000000000000000e+00
*SHELL SECTION, ELSET=C_phase2, SECTION INTEGRATION=SIMPSON, MATERIAL=Default-Steel
1.0000000000000000e+00
*SHELL SECTION, ELSET=C_phase3, SECTION INTEGRATION=SIMPSON, MATERIAL=Default-Steel
1.0000000000000000e+00
*SHELL SECTION, ELSET=C_phase4, SECTION INTEGRATION=SIMPSON, MATERIAL=Default-Steel
1.0000000000000000e+00
*SHELL SECTION, ELSET=C_phase5, SECTION INTEGRATION=SIMPSON, MATERIAL=Default-Steel
1.0000000000000000e+00
*SHELL SECTION, ELSET=C_phase6, SECTION INTEGRATION=SIMPSON, MATERIAL=Default-Steel
1.0000000000000000e+00
*SHELL SECTION, ELSET=C_phase7, SECTION INTEGRATION=SIMPSON, MATERIAL=Default-Steel
1.0000000000000000e+00
*SHELL SECTION, ELSET=C_phase8, SECTION INTEGRATION=SIMPSON, MATERIAL=Default-Steel
1.0000000000000000e+00
*SHELL SECTION, ELSET=C_phase9, SECTION INTEGRATION=SIMPSON, MATERIAL=Default-Steel
1.0000000000000000e+00
*SHELL SECTION, ELSET=C_phase10, SECTION INTEGRATION=SIMPSON, MATERIAL=Default-Steel
1.0000000000000000e+00
*SHELL SECTION, ELSET=C_phase11, SECTION INTEGRATION=SIMPSON, MATERIAL=Default-Steel
1.0000000000000000e+00
*SHELL SECTION, ELSET=C_phase12, SECTION INTEGRATION=SIMPSON, MATERIAL=Default-Steel
1.0000000000000000e+00
*SHELL SECTION, ELSET=C_phase13, SECTION INTEGRATION=SIMPSON, MATERIAL=Default-Steel
1.0000000000000000e+00
*SHELL SECTION, ELSET=C_phase14, SECTION INTEGRATION=SIMPSON, MATERIAL=Default-Steel
1.0000000000000000e+00
*SHELL SECTION, ELSET=C_phase15, SECTION INTEGRATION=SIMPSON, MATERIAL=Default-Steel
1.0000000000000000e+00
*SHELL SECTION, ELSET=C_phase16, SECTION INTEGRATION=SIMPSON, MATERIAL=Default-Steel
1.0000000000000000e+00
*SHELL SECTION, ELSET=C_phase17, SECTION INTEGRATION=SIMPSON, MATERIAL=Default-Steel
1.0000000000000000e+00
*SHELL SECTION, ELSET=C_phase18, SECTION INTEGRATION=SIMPSON, MATERIAL=Default-Steel
1.0000000000000000e+00
*SHELL SECTION, ELSET=C_phase19, SECTION INTEGRATION=SIMPSON, MATERIAL=Default-Steel
1.0000000000000000e+00
*SHELL SECTION, ELSET=C_phase20, SECTION INTEGRATION=SIMPSON, MATERIAL=Default-Steel
1.0000000000000000e+00
** ... 20 like lines cut
**
*END PART
**
**
**
********************************** E N D   P A R T S **********************************
**
**
********************************** A S S E M B L Y ************************************
**
*ASSEMBLY, NAME=ASSEMBLY1
**
*INSTANCE, NAME=Part-Default_1, PART=Part-Default
*END INSTANCE
**
*END ASSEMBLY
**
**
**
*MATERIAL, NAME = Default-Steel
*ELASTIC, TYPE=ISOTROPIC
2.0680000000000000e+05, 2.8999999999999998e-01
*DENSITY
6.9999999999999999e-06
*CONDUCTIVITY,TYPE=ISO
4.4999999999999998e-02
*SPECIFIC HEAT
5.0000000000000000e+02
**
**
************************************** H I S T O R Y *************************************
**
*PREPRINT
**
**************************************** S T E P 1 ***************************************
*STEP,INC=100,NAME=Default Set
**
*STATIC
1, 1, 1e-05, 1
**
**
**
**
*END STEP
